Global frequency set at 1000000000000 ticks per second
gem5 Simulator System.  http://gem5.org
gem5 is copyrighted software; use the --copyright option for details.

gem5 version 20.1.0.2
gem5 compiled May  2 2021 17:08:48
gem5 started May  2 2021 17:09:19
gem5 executing on gpuserver, pid 29213
command line: ./build/X86/gem5.opt -d m5out/ configs/example/garnet_synth_traffic.py --num-cpus=16 --num-dirs=16 --network=garnet --topology=Mesh_XY --mesh-rows=4 --sim-cycles=10000 --inj-vnet=-1 --vcs-per-vnet=8 --injectionrate=0.4 --synthetic=uniform_random --routing-algorithm=5

Printing distance
0 1
Distance Printed and incremented

------
2
2.14748e+09 131694 131492 1.77943e+09 South
------
Printing distance
0 1
Distance Printed and incremented

------
2
2.14748e+09 4.03055e+08 135467 4.54455e+08 South
------
Printing distance
0 1
Distance Printed and incremented

------
1
2.14748e+09 1.08796e+08 2.14748e+09 2.14748e+09 East
------
Printing distance
0 1
Distance Printed and incremented

------
3
160673 2.14748e+09 162977 160580 West
------
Printing distance
0 1
Distance Printed and incremented

------
0
128883 3.73692e+06 4.55441e+07 2.14748e+09 North
------
Printing distance
0 1
Distance Printed and incremented

------
0
2.93214e+06 2.14748e+09 2.14748e+09 5.62766e+08 North
------
Printing distance
0 2
Distance Printed and incremented

------
2
2.14748e+09 3.20803e+07 153737 2.54733e+08 South
------
Printing distance
0 1
Distance Printed and incremented

------
0
6.41139e+08 1.73485e+09 2.14748e+09 1.9781e+09 North
------
Printing distance
0 1
Distance Printed and incremented

------
0
148986 8.35976e+06 1.82951e+07 2.30925e+07 North
------
Printing distance
0 2
Distance Printed and incremented

------
1
287284 134688 5.38183e+06 220011 East
------
Printing distance
0 1
Distance Printed and incremented

------
0
156692 2.14748e+09 3.00239e+08 7.31994e+07 North
------
Printing distance
0 1
Distance Printed and incremented

------
0
89947.7 3.6517e+07 4.05588e+07 2.14748e+09 North
------
Printing distance
0 2
Distance Printed and incremented

------
2
391807 1.89814e+09 130076 2.14748e+09 South
------
Printing distance
0 1
Distance Printed and incremented

------
0
8.34556e+08 1.83871e+09 1.97041e+09 2.08951e+09 North
------
Printing distance
0 2
Distance Printed and incremented

------
2
592746 2.17882e+06 152859 973207 South
------
Printing distance
0 1
Distance Printed and incremented

------
0
113641 4.82926e+06 5.15643e+06 1.72333e+07 North
------
Printing distance
0 2
Distance Printed and incremented

------
0
157131 159672 162343 163488 North
------
Printing distance
0 2
Distance Printed and incremented

------
0
130647 2.14748e+09 257664 368370 North
------
Printing distance
0 1
Distance Printed and incremented

------
0
60222.4 2.14748e+09 1.18334e+06 1.99534e+06 North
------
Printing distance
0 3
Distance Printed and incremented

------
2
7.51138e+07 8.07508e+07 155268 2.14748e+09 South
------
Printing distance
0 3
Distance Printed and incremented

------
0
148763 2.14748e+09 2.14748e+09 163987 North
------
Printing distance
0 2
Distance Printed and incremented

------
1
2.14748e+09 78199.4 102157 2.14748e+09 East
------
Printing distance
0 2
Distance Printed and incremented

------
2
2.14748e+09 1.74799e+09 8.39453e+08 1.86829e+09 South
------
Printing distance
0 2
Distance Printed and incremented

------
0
1.01283e+07 1.13987e+09 1.23635e+09 1.10764e+09 North
------
Printing distance
0 3
Distance Printed and incremented

------
0
154772 2.14748e+09 5.85422e+06 1.4241e+06 North
------
Printing distance
0 2
Distance Printed and incremented

------
1
2.14748e+09 116677 2.08128e+09 152225 East
------
Printing distance
0 1
Distance Printed and incremented

------
3
2.14748e+09 2.14748e+09 6.96849e+08 161191 West
------
Printing distance
0 2
Distance Printed and incremented

------
2
2.14748e+09 2.14748e+09 60605.9 513195 South
------
Printing distance
0 1
Distance Printed and incremented

------
0
60222.4 2.14748e+09 1.18334e+06 1.99534e+06 North
------
Printing distance
0 2
Distance Printed and incremented

------
3
160673 2.14748e+09 162977 160580 West
------
Printing distance
0 1
Distance Printed and incremented

------
0
168520 277271 177869 8.13757e+08 North
------
Printing distance
0 2
Distance Printed and incremented

------
0
157131 159672 162343 163488 North
------
Printing distance
0 1
Distance Printed and incremented

------
0
4.88874e+07 8.24127e+08 5.79652e+08 2.14748e+09 North
------
Printing distance
0 1
Distance Printed and incremented

------
3
6.13856e+08 2.08147e+09 9.89734e+08 59081.3 West
------
Printing distance
0 1
Distance Printed and incremented

------
0
7.98832e+08 2.14748e+09 2.14748e+09 2.14748e+09 North
------
Printing distance
0 3
Distance Printed and incremented

------
0
128883 3.73692e+06 4.55441e+07 2.14748e+09 North
------
Printing distance
0 1
Distance Printed and incremented

------
0
1.59355e+08 1.54988e+09 2.14748e+09 1.55323e+09 North
------
Printing distance
0 3
Distance Printed and incremented

------
2
2.14748e+09 157903 152621 155971 South
------
Printing distance
0 3
Distance Printed and incremented

------
0
157683 6.17761e+06 4.35006e+07 1.60377e+07 North
------
Printing distance
0 3
Distance Printed and incremented

------
0
8.34556e+08 1.83871e+09 1.97041e+09 2.08951e+09 North
------
Printing distance
0 2
Distance Printed and incremented

------
2
2.14748e+09 2.14748e+09 60605.9 513195 South
------
Printing distance
0 3
Distance Printed and incremented

------
2
2.14748e+09 2.14748e+09 120455 147392 South
------
Printing distance
0 3
Distance Printed and incremented

------
0
157131 159672 162343 163488 North
------
Printing distance
0 3
Distance Printed and incremented

------
2
2.14748e+09 131694 131492 1.77943e+09 South
------
Printing distance
0 2
Distance Printed and incremented

------
3
2.14748e+09 170456 174736 162458 West
------
Printing distance
0 4
Distance Printed and incremented

------
2
391807 1.89814e+09 130076 2.14748e+09 South
------
Printing distance
0 2
Distance Printed and incremented

------
0
61574.7 2.758e+08 5.6218e+08 3.53363e+08 North
------
Printing distance
0 2
Distance Printed and incremented

------
0
61574.7 2.758e+08 5.6218e+08 3.53363e+08 North
------
Printing distance
0 4
Distance Printed and incremented

------
1
3.34422e+07 140699 4.32676e+07 1.90145e+09 East
------
Printing distance
0 1
Distance Printed and incremented

------
0
76860.2 2.14748e+09 1.10135e+08 8.82713e+07 North
------
Printing distance
0 4
Distance Printed and incremented

------
2
173372 2.14748e+09 172522 229279 South
------
Printing distance
0 3
Distance Printed and incremented

------
0
60222.4 2.14748e+09 1.18334e+06 1.99534e+06 North
------
Printing distance
0 1
Distance Printed and incremented

------
1
2.14748e+09 1.08796e+08 2.14748e+09 2.14748e+09 East
------
Printing distance
0 2
Distance Printed and incremented

------
2
2.14748e+09 2.14748e+09 5.06391e+07 2.14748e+09 South
------
Printing distance
0 1
Distance Printed and incremented

------
2
2.14748e+09 170460 160430 169112 South
------
Printing distance
0 3
Distance Printed and incremented

------
2
2.14748e+09 2.14748e+09 62619.7 86666.8 South
------
Printing distance
0 2
Distance Printed and incremented

------
1
1.4627e+09 2.84428e+07 1.60116e+09 2.14748e+09 East
------
Printing distance
0 4
Distance Printed and incremented

------
2
592746 2.17882e+06 152859 973207 South
------
Printing distance
0 2
Distance Printed and incremented

------
3
2.14748e+09 176712 168623 168025 West
------
Printing distance
0 4
Distance Printed and incremented

------
0
157131 159672 162343 163488 North
------
Printing distance
0 4
Distance Printed and incremented

------
2
152456 2.14748e+09 112020 1.79477e+09 South
------
Printing distance
0 3
Distance Printed and incremented

------
2
2.14748e+09 157903 152621 155971 South
------
Printing distance
0 5
Distance Printed and incremented

------
0
148986 8.35976e+06 1.82951e+07 2.30925e+07 North
------
Printing distance
0 5
Distance Printed and incremented

------
0
148763 2.14748e+09 2.14748e+09 163987 North
------
Printing distance
0 4
Distance Printed and incremented

------
2
2.14748e+09 2.14748e+09 60605.9 513195 South
------
Printing distance
0 4
Distance Printed and incremented

------
2
2.14748e+09 166950 164621 170512 South
------
Printing distance
0 2
Distance Printed and incremented

------
2
2.14748e+09 3.20803e+07 153737 2.54733e+08 South
------
Printing distance
0 3
Distance Printed and incremented

------
2
2.14748e+09 166950 164621 170512 South
------
Printing distance
0 3
Distance Printed and incremented

------
0
4.88874e+07 8.24127e+08 5.79652e+08 2.14748e+09 North
------
Printing distance
0 3
Distance Printed and incremented

------
0
62467 1.92319e+07 1.6522e+06 5.60988e+06 North
------
Printing distance
0 4
Distance Printed and incremented

------
0
62467 1.92319e+07 1.6522e+06 5.60988e+06 North
------
Printing distance
0 1
Distance Printed and incremented

------
0
61574.7 2.758e+08 5.6218e+08 3.53363e+08 North
------
Printing distance
0 1
Distance Printed and incremented

------
0
2.81558e+07 1.12239e+09 1.21811e+09 2.14748e+09 North
------
Printing distance
0 5
Distance Printed and incremented

------
0
128883 3.73692e+06 4.55441e+07 2.14748e+09 North
------
Printing distance
0 1
Distance Printed and incremented

------
0
4.89017e+08 2.14748e+09 2.14748e+09 1.44648e+09 North
------
Printing distance
0 1
Distance Printed and incremented

------
0
1.24251e+09 2.0895e+09 2.14748e+09 2.14748e+09 North
------
Printing distance
0 3
Distance Printed and incremented

------
0
62467 1.92319e+07 1.6522e+06 5.60988e+06 North
------
Printing distance
0 3
Distance Printed and incremented

------
0
165955 1.93442e+09 2.14748e+09 8.91483e+08 North
------
Printing distance
0 2
Distance Printed and incremented

------
1
1.84398e+06 162746 1.83716e+07 2.03808e+09 East
------
Printing distance
0 5
Distance Printed and incremented

------
0
154772 2.14748e+09 5.85422e+06 1.4241e+06 North
------
Printing distance
0 2
Distance Printed and incremented

------
3
2.14748e+09 2.14748e+09 1.77762e+07 105676 West
------
Printing distance
0 4
Distance Printed and incremented

------
2
2.14748e+09 1.74799e+09 8.39453e+08 1.86829e+09 South
------
Printing distance
0 3
Distance Printed and incremented

------
1
2.14748e+09 158587 1.34015e+09 165546 East
------
Printing distance
0 3
Distance Printed and incremented

------
0
60222.4 2.14748e+09 1.18334e+06 1.99534e+06 North
------
Printing distance
0 4
Distance Printed and incremented

------
2
2.14748e+09 157903 152621 155971 South
------
Printing distance
0 5
Distance Printed and incremented

------
2
2.14748e+09 157903 152621 155971 South
------
Printing distance
0 4
Distance Printed and incremented

------
2
2.14748e+09 2.14748e+09 62619.7 86666.8 South
------
Printing distance
0 6
Distance Printed and incremented

------
2
391807 1.89814e+09 130076 2.14748e+09 South
------
Printing distance
0 1
Distance Printed and incremented

------
1
2.14748e+09 1.83546e+09 2.14748e+09 2.14748e+09 East
------
Printing distance
0 1
Distance Printed and incremented

my_id = dest_id
Printing distance
0 1
Distance Printed and incremented

------
0
2.14748e+09 2.14748e+09 2.14748e+09 2.14748e+09 North
------
Printing distance
0 1
Distance Printed and incremented

------
1
4.38607e+08 163371 5.28641e+08 2.14748e+09 East
------
Printing distance
0 2
Distance Printed and incremented

------
0
7.98832e+08 2.14748e+09 2.14748e+09 2.14748e+09 North
------
Printing distance
0 1
Distance Printed and incremented

------
2
2.14748e+09 2.14748e+09 5.02393e+07 2.96237e+08 South
------
Printing distance
0 2
Distance Printed and incremented

------
0
9.8842e+07 2.14748e+09 1.1543e+09 1.11152e+09 North
------
Printing distance
0 5
Distance Printed and incremented

------
3
139743 2.14748e+09 147605 92934 West
------
Printing distance
0 1
Distance Printed and incremented

------
0
52138.9 2.14748e+09 1.97643e+09 120397 North
------
Printing distance
0 2
Distance Printed and incremented

------
0
62467 1.92319e+07 1.6522e+06 5.60988e+06 North
------
Printing distance
0 5
Distance Printed and incremented

------
0
157683 6.17761e+06 4.35006e+07 1.60377e+07 North
------
Printing distance
0 1
Distance Printed and incremented

------
2
4.12852e+07 2.33464e+07 114391 2.14748e+09 South
------
Printing distance
0 6
Distance Printed and incremented

------
0
157131 159672 162343 163488 North
------
Printing distance
0 4
Distance Printed and incremented

------
0
130647 2.14748e+09 257664 368370 North
------
Printing distance
0 1
Distance Printed and incremented

my_id = dest_id
Printing distance
0 6
Distance Printed and incremented

------
2
173372 2.14748e+09 172522 229279 South
------
Printing distance
0 1
Distance Printed and incremented

------
1
2.14748e+09 78199.4 102157 2.14748e+09 East
------
Printing distance
0 4
Distance Printed and incremented

------
2
2.14748e+09 2.14748e+09 5.06391e+07 2.14748e+09 South
------
Printing distance
0 2
Distance Printed and incremented

------
1
2.14748e+09 3.35878e+06 9.32367e+08 2.14748e+09 East
------
Printing distance
0 4
Distance Printed and incremented

------
1
2.14748e+09 140755 4.4132e+07 3.75476e+08 East
------
Printing distance
0 5
Distance Printed and incremented

------
0
60222.4 2.14748e+09 1.18334e+06 1.99534e+06 North
------
Printing distance
0 3
Distance Printed and incremented

------
2
7.51138e+07 8.07508e+07 155268 2.14748e+09 South
------
Printing distance
0 4
Distance Printed and incremented

------
2
2.14748e+09 2.14748e+09 60605.9 513195 South
------
Printing distance
0 5
Distance Printed and incremented

------
0
157131 159672 162343 163488 North
------
Printing distance
0 6
Distance Printed and incremented

------
2
592746 2.17882e+06 152859 973207 South
------
Printing distance
0 4
Distance Printed and incremented

------
0
157683 6.17761e+06 4.35006e+07 1.60377e+07 North
------
Printing distance
0 7
Distance Printed and incremented

------
0
128883 3.73692e+06 4.55441e+07 2.14748e+09 North
------
Printing distance
0 2
Distance Printed and incremented

------
0
3.63301e+08 2.14748e+09 2.14748e+09 1.92498e+09 North
------
Printing distance
0 3
Distance Printed and incremented

------
2
1.40226e+09 2.14748e+09 1.0202e+08 2.14748e+09 South
------
Printing distance
0 6
Distance Printed and incremented

------
1
1.71008e+09 94126.4 525987 2.14748e+09 East
------
Printing distance
0 2
Distance Printed and incremented

------
1
8.14909e+06 115042 3.38262e+07 2.59322e+07 East
------
Printing distance
0 3
Distance Printed and incremented

------
2
2.14748e+09 285704 126821 839518 South
------
Printing distance
0 2
Distance Printed and incremented

------
0
2.0895e+09 2.14748e+09 2.14748e+09 2.14748e+09 North
------
Printing distance
0 7
Distance Printed and incremented

------
0
148763 2.14748e+09 2.14748e+09 163987 North
------
Printing distance
0 5
Distance Printed and incremented

------
2
2.14748e+09 2.14748e+09 62619.7 86666.8 South
------
Printing distance
0 2
Distance Printed and incremented

------
2
2.14748e+09 2.14748e+09 62619.7 86666.8 South
------
Printing distance
0 1
Distance Printed and incremented

------
2
1.74008e+06 161255 157690 158469 South
------
Printing distance
0 6
Distance Printed and incremented

------
0
157131 159672 162343 163488 North
------
Printing distance
0 1
Distance Printed and incremented

------
0
89947.7 3.6517e+07 4.05588e+07 2.14748e+09 North
------
Printing distance
0 3
Distance Printed and incremented

------
1
1.4627e+09 2.84428e+07 1.60116e+09 2.14748e+09 East
------
Printing distance
0 5
Distance Printed and incremented

------
0
4.88874e+07 8.24127e+08 5.79652e+08 2.14748e+09 North
------
Printing distance
0 1
Distance Printed and incremented

------
0
52524.4 3.26107e+08 4.85516e+08 4.05303e+07 North
------
Printing distance
0 2
Distance Printed and incremented

------
0
175373 907944 294646 432213 North
------
Printing distance
0 2
Distance Printed and incremented

------
0
5.57259e+07 2.14748e+09 2.14748e+09 1.16476e+08 North
------
Printing distance
0 1
Distance Printed and incremented

------
3
2.40728e+08 2.70137e+08 2.14748e+09 133238 West
------
Printing distance
0 3
Distance Printed and incremented

------
0
77974.1 1.84077e+07 1.11069e+08 1.89637e+08 North
------
Printing distance
0 5
Distance Printed and incremented

------
0
62467 1.92319e+07 1.6522e+06 5.60988e+06 North
------
Printing distance
0 4
Distance Printed and incremented

------
0
157131 159672 162343 163488 North
------
Printing distance
0 2
Distance Printed and incremented

------
2
2.14748e+09 105341 54022.7 79870.4 South
------
Printing distance
0 1
Distance Printed and incremented

------
0
3.3605e+06 2.14748e+09 2.14748e+09 2.14748e+09 North
------
Printing distance
0 7
Distance Printed and incremented

------
2
2.14748e+09 157903 152621 155971 South
------
Printing distance
0 4
Distance Printed and incremented

------
3
2.14748e+09 176712 168623 168025 West
------
Printing distance
0 8
Distance Printed and incremented

------
2
391807 1.89814e+09 130076 2.14748e+09 South
------
Printing distance
0 8
Distance Printed and incremented

------
2
173372 2.14748e+09 172522 229279 South
------
Printing distance
0 2
Distance Printed and incremented

------
0
158202 1.55848e+07 5.85475e+07 1.15559e+07 North
------
Printing distance
0 3
Distance Printed and incremented

------
2
1.67756e+09 357003 177100 1.42318e+06 South
------
Printing distance
0 4
Distance Printed and incremented

------
0
165955 1.93442e+09 2.14748e+09 8.91483e+08 North
------
Printing distance
0 3
Distance Printed and incremented

------
0
62467 1.92319e+07 1.6522e+06 5.60988e+06 North
------
Printing distance
0 3
Distance Printed and incremented

------
2
2.14748e+09 2.14748e+09 5.02393e+07 2.96237e+08 South
------
Printing distance
0 7
Distance Printed and incremented

------
3
139743 2.14748e+09 147605 92934 West
------
Printing distance
0 4
Distance Printed and incremented

------
0
9.8842e+07 2.14748e+09 1.1543e+09 1.11152e+09 North
------
Printing distance
0 2
Distance Printed and incremented

------
0
150665 2.70562e+07 2.14748e+09 1.77974e+08 North
------
Printing distance
0 1
Distance Printed and incremented

------
1
2.14748e+09 1.83546e+09 2.14748e+09 2.14748e+09 East
------
Printing distance
0 1
Distance Printed and incremented

------
0
61574.7 2.758e+08 5.6218e+08 3.53363e+08 North
------
Printing distance
0 3
Distance Printed and incremented

------
0
2.40839e+07 1.66457e+09 1.73967e+09 2.14748e+09 North
------
Printing distance
0 1
Distance Printed and incremented

------
2
4.12852e+07 2.33464e+07 114391 2.14748e+09 South
------
Printing distance
0 4
Distance Printed and incremented

------
0
126990 3.80024e+06 2.14748e+09 3.66907e+06 North
------
Printing distance
0 1
Distance Printed and incremented

my_id = dest_id
Printing distance
0 2
Distance Printed and incremented

------
1
2.14748e+09 78199.4 102157 2.14748e+09 East
------
Printing distance
0 1
Distance Printed and incremented

------
1
2.14748e+09 1.58547e+09 2.14748e+09 2.14748e+09 East
------
Printing distance
0 4
Distance Printed and incremented

------
2
2.14748e+09 2.14748e+09 62619.7 86666.8 South
------
Printing distance
0 1
Distance Printed and incremented

------
2
2.14748e+09 285704 126821 839518 South
------
Printing distance
0 1
Distance Printed and incremented

my_id = dest_id
Printing distance
0 6
Distance Printed and incremented

------
2
2.14748e+09 2.14748e+09 60605.9 513195 South
------
Printing distance
0 6
Distance Printed and incremented

------
2
2.14748e+09 2.14748e+09 5.06391e+07 2.14748e+09 South
------
Printing distance
0 3
Distance Printed and incremented

------
3
2.14748e+09 2.14748e+09 2.14748e+09 2.0702e+09 West
------
Printing distance
0 5
Distance Printed and incremented

------
0
60222.4 2.14748e+09 1.18334e+06 1.99534e+06 North
------
Printing distance
0 5
Distance Printed and incremented

------
2
2.14748e+09 131694 131492 1.77943e+09 South
------
Printing distance
0 3
Distance Printed and incremented

------
0
52138.9 2.14748e+09 1.97643e+09 120397 North
------
Printing distance
0 3
Distance Printed and incremented

------
0
115288 2.14748e+09 2.50855e+07 8.91553e+06 North
------
Printing distance
0 8
Distance Printed and incremented

------
0
157131 159672 162343 163488 North
------
Printing distance
0 4
Distance Printed and incremented

------
1
2.14748e+09 90484.9 115276 2.14748e+09 East
------
Printing distance
0 5
Distance Printed and incremented

------
1
2.14748e+09 158587 1.34015e+09 165546 East
------
Exiting @ tick 10000 because Network Tester completed simCycles
