
---------- Begin Simulation Statistics ----------
final_tick                                     100000                       # Number of ticks from beginning of simulation (restored from checkpoints and never reset)
host_mem_usage                                 908456                       # Number of bytes of host memory used
host_seconds                                     4.99                       # Real time elapsed on the host
host_tick_rate                                  20022                       # Simulator tick rate (ticks/s)
sim_freq                                 1000000000000                       # Frequency of simulated ticks
sim_seconds                                  0.000000                       # Number of seconds simulated
sim_ticks                                      100000                       # Number of ticks simulated
system.ruby.Directory_Controller.I.Receive_Forward |           3      8.82%      8.82% |           0      0.00%      8.82% |           0      0.00%      8.82% |           0      0.00%      8.82% |           1      2.94%     11.76% |           0      0.00%     11.76% |           1      2.94%     14.71% |           0      0.00%     14.71% |           1      2.94%     17.65% |           0      0.00%     17.65% |           1      2.94%     20.59% |           2      5.88%     26.47% |           0      0.00%     26.47% |           1      2.94%     29.41% |           1      2.94%     32.35% |           1      2.94%     35.29% |           0      0.00%     35.29% |           0      0.00%     35.29% |           0      0.00%     35.29% |           1      2.94%     38.24% |           1      2.94%     41.18% |           1      2.94%     44.12% |           0      0.00%     44.12% |           2      5.88%     50.00% |           1      2.94%     52.94% |           1      2.94%     55.88% |           0      0.00%     55.88% |           1      2.94%     58.82% |           1      2.94%     61.76% |           0      0.00%     61.76% |           1      2.94%     64.71% |           0      0.00%     64.71% |           0      0.00%     64.71% |           1      2.94%     67.65% |           0      0.00%     67.65% |           1      2.94%     70.59% |           0      0.00%     70.59% |           0      0.00%     70.59% |           0      0.00%     70.59% |           1      2.94%     73.53% |           0      0.00%     73.53% |           0      0.00%     73.53% |           0      0.00%     73.53% |           0      0.00%     73.53% |           1      2.94%     76.47% |           0      0.00%     76.47% |           0      0.00%     76.47% |           2      5.88%     82.35% |           0      0.00%     82.35% |           2      5.88%     88.24% |           0      0.00%     88.24% |           1      2.94%     91.18% |           0      0.00%     91.18% |           1      2.94%     94.12% |           0      0.00%     94.12% |           0      0.00%     94.12% |           0      0.00%     94.12% |           0      0.00%     94.12% |           0      0.00%     94.12% |           2      5.88%    100.00% |           0      0.00%    100.00% |           0      0.00%    100.00% |           0      0.00%    100.00% |           0      0.00%    100.00%
system.ruby.Directory_Controller.I.Receive_Forward::total           34                      
system.ruby.Directory_Controller.I.Receive_Request |           0      0.00%      0.00% |           0      0.00%      0.00% |           2      4.26%      4.26% |           1      2.13%      6.38% |           0      0.00%      6.38% |           0      0.00%      6.38% |           0      0.00%      6.38% |           0      0.00%      6.38% |           0      0.00%      6.38% |           3      6.38%     12.77% |           2      4.26%     17.02% |           4      8.51%     25.53% |           0      0.00%     25.53% |           0      0.00%     25.53% |           1      2.13%     27.66% |           0      0.00%     27.66% |           0      0.00%     27.66% |           0      0.00%     27.66% |           0      0.00%     27.66% |           1      2.13%     29.79% |           0      0.00%     29.79% |           0      0.00%     29.79% |           0      0.00%     29.79% |           3      6.38%     36.17% |           0      0.00%     36.17% |           2      4.26%     40.43% |           0      0.00%     40.43% |           2      4.26%     44.68% |           0      0.00%     44.68% |           1      2.13%     46.81% |           0      0.00%     46.81% |           1      2.13%     48.94% |           1      2.13%     51.06% |           1      2.13%     53.19% |           1      2.13%     55.32% |           2      4.26%     59.57% |           0      0.00%     59.57% |           1      2.13%     61.70% |           1      2.13%     63.83% |           2      4.26%     68.09% |           0      0.00%     68.09% |           1      2.13%     70.21% |           1      2.13%     72.34% |           0      0.00%     72.34% |           1      2.13%     74.47% |           0      0.00%     74.47% |           0      0.00%     74.47% |           2      4.26%     78.72% |           0      0.00%     78.72% |           1      2.13%     80.85% |           0      0.00%     80.85% |           1      2.13%     82.98% |           0      0.00%     82.98% |           1      2.13%     85.11% |           0      0.00%     85.11% |           1      2.13%     87.23% |           1      2.13%     89.36% |           3      6.38%     95.74% |           1      2.13%     97.87% |           0      0.00%     97.87% |           0      0.00%     97.87% |           0      0.00%     97.87% |           0      0.00%     97.87% |           1      2.13%    100.00%
system.ruby.Directory_Controller.I.Receive_Request::total           47                      
system.ruby.Directory_Controller.I.Receive_Response |           0      0.00%      0.00% |           0      0.00%      0.00% |           0      0.00%      0.00% |           2      8.00%      8.00% |           1      4.00%     12.00% |           0      0.00%     12.00% |           1      4.00%     16.00% |           0      0.00%     16.00% |           0      0.00%     16.00% |           0      0.00%     16.00% |           0      0.00%     16.00% |           2      8.00%     24.00% |           1      4.00%     28.00% |           0      0.00%     28.00% |           0      0.00%     28.00% |           0      0.00%     28.00% |           1      4.00%     32.00% |           0      0.00%     32.00% |           0      0.00%     32.00% |           0      0.00%     32.00% |           0      0.00%     32.00% |           0      0.00%     32.00% |           0      0.00%     32.00% |           0      0.00%     32.00% |           1      4.00%     36.00% |           1      4.00%     40.00% |           1      4.00%     44.00% |           0      0.00%     44.00% |           0      0.00%     44.00% |           1      4.00%     48.00% |           0      0.00%     48.00% |           2      8.00%     56.00% |           0      0.00%     56.00% |           1      4.00%     60.00% |           1      4.00%     64.00% |           1      4.00%     68.00% |           1      4.00%     72.00% |           0      0.00%     72.00% |           0      0.00%     72.00% |           0      0.00%     72.00% |           0      0.00%     72.00% |           0      0.00%     72.00% |           0      0.00%     72.00% |           0      0.00%     72.00% |           0      0.00%     72.00% |           0      0.00%     72.00% |           0      0.00%     72.00% |           1      4.00%     76.00% |           0      0.00%     76.00% |           0      0.00%     76.00% |           0      0.00%     76.00% |           2      8.00%     84.00% |           0      0.00%     84.00% |           0      0.00%     84.00% |           0      0.00%     84.00% |           1      4.00%     88.00% |           0      0.00%     88.00% |           1      4.00%     92.00% |           1      4.00%     96.00% |           0      0.00%     96.00% |           1      4.00%    100.00% |           0      0.00%    100.00% |           0      0.00%    100.00% |           0      0.00%    100.00%
system.ruby.Directory_Controller.I.Receive_Response::total           25                      
system.ruby.Directory_Controller.Receive_Forward |           3      8.82%      8.82% |           0      0.00%      8.82% |           0      0.00%      8.82% |           0      0.00%      8.82% |           1      2.94%     11.76% |           0      0.00%     11.76% |           1      2.94%     14.71% |           0      0.00%     14.71% |           1      2.94%     17.65% |           0      0.00%     17.65% |           1      2.94%     20.59% |           2      5.88%     26.47% |           0      0.00%     26.47% |           1      2.94%     29.41% |           1      2.94%     32.35% |           1      2.94%     35.29% |           0      0.00%     35.29% |           0      0.00%     35.29% |           0      0.00%     35.29% |           1      2.94%     38.24% |           1      2.94%     41.18% |           1      2.94%     44.12% |           0      0.00%     44.12% |           2      5.88%     50.00% |           1      2.94%     52.94% |           1      2.94%     55.88% |           0      0.00%     55.88% |           1      2.94%     58.82% |           1      2.94%     61.76% |           0      0.00%     61.76% |           1      2.94%     64.71% |           0      0.00%     64.71% |           0      0.00%     64.71% |           1      2.94%     67.65% |           0      0.00%     67.65% |           1      2.94%     70.59% |           0      0.00%     70.59% |           0      0.00%     70.59% |           0      0.00%     70.59% |           1      2.94%     73.53% |           0      0.00%     73.53% |           0      0.00%     73.53% |           0      0.00%     73.53% |           0      0.00%     73.53% |           1      2.94%     76.47% |           0      0.00%     76.47% |           0      0.00%     76.47% |           2      5.88%     82.35% |           0      0.00%     82.35% |           2      5.88%     88.24% |           0      0.00%     88.24% |           1      2.94%     91.18% |           0      0.00%     91.18% |           1      2.94%     94.12% |           0      0.00%     94.12% |           0      0.00%     94.12% |           0      0.00%     94.12% |           0      0.00%     94.12% |           0      0.00%     94.12% |           2      5.88%    100.00% |           0      0.00%    100.00% |           0      0.00%    100.00% |           0      0.00%    100.00% |           0      0.00%    100.00%
system.ruby.Directory_Controller.Receive_Forward::total           34                      
system.ruby.Directory_Controller.Receive_Request |           0      0.00%      0.00% |           0      0.00%      0.00% |           2      4.26%      4.26% |           1      2.13%      6.38% |           0      0.00%      6.38% |           0      0.00%      6.38% |           0      0.00%      6.38% |           0      0.00%      6.38% |           0      0.00%      6.38% |           3      6.38%     12.77% |           2      4.26%     17.02% |           4      8.51%     25.53% |           0      0.00%     25.53% |           0      0.00%     25.53% |           1      2.13%     27.66% |           0      0.00%     27.66% |           0      0.00%     27.66% |           0      0.00%     27.66% |           0      0.00%     27.66% |           1      2.13%     29.79% |           0      0.00%     29.79% |           0      0.00%     29.79% |           0      0.00%     29.79% |           3      6.38%     36.17% |           0      0.00%     36.17% |           2      4.26%     40.43% |           0      0.00%     40.43% |           2      4.26%     44.68% |           0      0.00%     44.68% |           1      2.13%     46.81% |           0      0.00%     46.81% |           1      2.13%     48.94% |           1      2.13%     51.06% |           1      2.13%     53.19% |           1      2.13%     55.32% |           2      4.26%     59.57% |           0      0.00%     59.57% |           1      2.13%     61.70% |           1      2.13%     63.83% |           2      4.26%     68.09% |           0      0.00%     68.09% |           1      2.13%     70.21% |           1      2.13%     72.34% |           0      0.00%     72.34% |           1      2.13%     74.47% |           0      0.00%     74.47% |           0      0.00%     74.47% |           2      4.26%     78.72% |           0      0.00%     78.72% |           1      2.13%     80.85% |           0      0.00%     80.85% |           1      2.13%     82.98% |           0      0.00%     82.98% |           1      2.13%     85.11% |           0      0.00%     85.11% |           1      2.13%     87.23% |           1      2.13%     89.36% |           3      6.38%     95.74% |           1      2.13%     97.87% |           0      0.00%     97.87% |           0      0.00%     97.87% |           0      0.00%     97.87% |           0      0.00%     97.87% |           1      2.13%    100.00%
system.ruby.Directory_Controller.Receive_Request::total           47                      
system.ruby.Directory_Controller.Receive_Response |           0      0.00%      0.00% |           0      0.00%      0.00% |           0      0.00%      0.00% |           2      8.00%      8.00% |           1      4.00%     12.00% |           0      0.00%     12.00% |           1      4.00%     16.00% |           0      0.00%     16.00% |           0      0.00%     16.00% |           0      0.00%     16.00% |           0      0.00%     16.00% |           2      8.00%     24.00% |           1      4.00%     28.00% |           0      0.00%     28.00% |           0      0.00%     28.00% |           0      0.00%     28.00% |           1      4.00%     32.00% |           0      0.00%     32.00% |           0      0.00%     32.00% |           0      0.00%     32.00% |           0      0.00%     32.00% |           0      0.00%     32.00% |           0      0.00%     32.00% |           0      0.00%     32.00% |           1      4.00%     36.00% |           1      4.00%     40.00% |           1      4.00%     44.00% |           0      0.00%     44.00% |           0      0.00%     44.00% |           1      4.00%     48.00% |           0      0.00%     48.00% |           2      8.00%     56.00% |           0      0.00%     56.00% |           1      4.00%     60.00% |           1      4.00%     64.00% |           1      4.00%     68.00% |           1      4.00%     72.00% |           0      0.00%     72.00% |           0      0.00%     72.00% |           0      0.00%     72.00% |           0      0.00%     72.00% |           0      0.00%     72.00% |           0      0.00%     72.00% |           0      0.00%     72.00% |           0      0.00%     72.00% |           0      0.00%     72.00% |           0      0.00%     72.00% |           1      4.00%     76.00% |           0      0.00%     76.00% |           0      0.00%     76.00% |           0      0.00%     76.00% |           2      8.00%     84.00% |           0      0.00%     84.00% |           0      0.00%     84.00% |           0      0.00%     84.00% |           1      4.00%     88.00% |           0      0.00%     88.00% |           1      4.00%     92.00% |           1      4.00%     96.00% |           0      0.00%     96.00% |           1      4.00%    100.00% |           0      0.00%    100.00% |           0      0.00%    100.00% |           0      0.00%    100.00%
system.ruby.Directory_Controller.Receive_Response::total           25                      
system.ruby.IFETCH.hit_latency_hist_seqr::bucket_size            1                      
system.ruby.IFETCH.hit_latency_hist_seqr::max_bucket            9                      
system.ruby.IFETCH.hit_latency_hist_seqr::samples         1889                      
system.ruby.IFETCH.hit_latency_hist_seqr::mean     0.008999                      
system.ruby.IFETCH.hit_latency_hist_seqr::stdev     0.094463                      
system.ruby.IFETCH.hit_latency_hist_seqr |        1872     99.10%     99.10% |          17      0.90%    100.00% |           0      0.00%    100.00% |           0      0.00%    100.00% |           0      0.00%    100.00% |           0      0.00%    100.00% |           0      0.00%    100.00% |           0      0.00%    100.00% |           0      0.00%    100.00% |           0      0.00%    100.00%
system.ruby.IFETCH.hit_latency_hist_seqr::total         1889                      
system.ruby.IFETCH.latency_hist_seqr::bucket_size            1                      
system.ruby.IFETCH.latency_hist_seqr::max_bucket            9                      
system.ruby.IFETCH.latency_hist_seqr::samples         1889                      
system.ruby.IFETCH.latency_hist_seqr::mean     0.008999                      
system.ruby.IFETCH.latency_hist_seqr::stdev     0.094463                      
system.ruby.IFETCH.latency_hist_seqr     |        1872     99.10%     99.10% |          17      0.90%    100.00% |           0      0.00%    100.00% |           0      0.00%    100.00% |           0      0.00%    100.00% |           0      0.00%    100.00% |           0      0.00%    100.00% |           0      0.00%    100.00% |           0      0.00%    100.00% |           0      0.00%    100.00%
system.ruby.IFETCH.latency_hist_seqr::total         1889                      
system.ruby.L1Cache_Controller.Forward   |          26      1.38%      1.38% |          23      1.22%      2.59% |          33      1.75%      4.34% |          28      1.48%      5.82% |          31      1.64%      7.46% |          21      1.11%      8.58% |          29      1.54%     10.11% |          31      1.64%     11.75% |          30      1.59%     13.34% |          34      1.80%     15.14% |          21      1.11%     16.25% |          26      1.38%     17.63% |          30      1.59%     19.22% |          34      1.80%     21.02% |          37      1.96%     22.98% |          26      1.38%     24.35% |          29      1.54%     25.89% |          34      1.80%     27.69% |          22      1.16%     28.85% |          32      1.69%     30.55% |          28      1.48%     32.03% |          27      1.43%     33.46% |          29      1.54%     34.99% |          26      1.38%     36.37% |          24      1.27%     37.64% |          27      1.43%     39.07% |          29      1.54%     40.60% |          36      1.91%     42.51% |          30      1.59%     44.10% |          30      1.59%     45.69% |          40      2.12%     47.80% |          38      2.01%     49.81% |          27      1.43%     51.24% |          28      1.48%     52.73% |          26      1.38%     54.10% |          35      1.85%     55.96% |          24      1.27%     57.23% |          33      1.75%     58.97% |          33      1.75%     60.72% |          30      1.59%     62.31% |          19      1.01%     63.31% |          27      1.43%     64.74% |          30      1.59%     66.33% |          24      1.27%     67.60% |          29      1.54%     69.14% |          30      1.59%     70.73% |          36      1.91%     72.63% |          28      1.48%     74.11% |          34      1.80%     75.91% |          26      1.38%     77.29% |          32      1.69%     78.98% |          24      1.27%     80.25% |          31      1.64%     81.90% |          23      1.22%     83.11% |          30      1.59%     84.70% |          25      1.32%     86.02% |          42      2.22%     88.25% |          28      1.48%     89.73% |          25      1.32%     91.05% |          34      1.80%     92.85% |          36      1.91%     94.76% |          31      1.64%     96.40% |          34      1.80%     98.20% |          34      1.80%    100.00%
system.ruby.L1Cache_Controller.Forward::total         1889                      
system.ruby.L1Cache_Controller.I.Forward |          26      1.38%      1.38% |          23      1.22%      2.59% |          33      1.75%      4.34% |          28      1.48%      5.82% |          31      1.64%      7.46% |          21      1.11%      8.58% |          29      1.54%     10.11% |          31      1.64%     11.75% |          30      1.59%     13.34% |          34      1.80%     15.14% |          21      1.11%     16.25% |          26      1.38%     17.63% |          30      1.59%     19.22% |          34      1.80%     21.02% |          37      1.96%     22.98% |          26      1.38%     24.35% |          29      1.54%     25.89% |          34      1.80%     27.69% |          22      1.16%     28.85% |          32      1.69%     30.55% |          28      1.48%     32.03% |          27      1.43%     33.46% |          29      1.54%     34.99% |          26      1.38%     36.37% |          24      1.27%     37.64% |          27      1.43%     39.07% |          29      1.54%     40.60% |          36      1.91%     42.51% |          30      1.59%     44.10% |          30      1.59%     45.69% |          40      2.12%     47.80% |          38      2.01%     49.81% |          27      1.43%     51.24% |          28      1.48%     52.73% |          26      1.38%     54.10% |          35      1.85%     55.96% |          24      1.27%     57.23% |          33      1.75%     58.97% |          33      1.75%     60.72% |          30      1.59%     62.31% |          19      1.01%     63.31% |          27      1.43%     64.74% |          30      1.59%     66.33% |          24      1.27%     67.60% |          29      1.54%     69.14% |          30      1.59%     70.73% |          36      1.91%     72.63% |          28      1.48%     74.11% |          34      1.80%     75.91% |          26      1.38%     77.29% |          32      1.69%     78.98% |          24      1.27%     80.25% |          31      1.64%     81.90% |          23      1.22%     83.11% |          30      1.59%     84.70% |          25      1.32%     86.02% |          42      2.22%     88.25% |          28      1.48%     89.73% |          25      1.32%     91.05% |          34      1.80%     92.85% |          36      1.91%     94.76% |          31      1.64%     96.40% |          34      1.80%     98.20% |          34      1.80%    100.00%
system.ruby.L1Cache_Controller.I.Forward::total         1889                      
system.ruby.L1Cache_Controller.I.Request |          27      1.41%      1.41% |          25      1.30%      2.71% |          30      1.56%      4.27% |          32      1.67%      5.94% |          23      1.20%      7.14% |          38      1.98%      9.11% |          25      1.30%     10.42% |          32      1.67%     12.08% |          30      1.56%     13.65% |          30      1.56%     15.21% |          29      1.51%     16.72% |          32      1.67%     18.39% |          25      1.30%     19.69% |          34      1.77%     21.46% |          33      1.72%     23.18% |          27      1.41%     24.58% |          25      1.30%     25.89% |          22      1.15%     27.03% |          31      1.61%     28.65% |          24      1.25%     29.90% |          23      1.20%     31.09% |          29      1.51%     32.60% |          34      1.77%     34.38% |          31      1.61%     35.99% |          35      1.82%     37.81% |          33      1.72%     39.53% |          30      1.56%     41.09% |          33      1.72%     42.81% |          31      1.61%     44.43% |          28      1.46%     45.89% |          25      1.30%     47.19% |          31      1.61%     48.80% |          32      1.67%     50.47% |          34      1.77%     52.24% |          38      1.98%     54.22% |          27      1.41%     55.63% |          33      1.72%     57.34% |          30      1.56%     58.91% |          32      1.67%     60.57% |          29      1.51%     62.08% |          39      2.03%     64.11% |          29      1.51%     65.63% |          31      1.61%     67.24% |          33      1.72%     68.96% |          30      1.56%     70.52% |          21      1.09%     71.61% |          28      1.46%     73.07% |          35      1.82%     74.90% |          27      1.41%     76.30% |          31      1.61%     77.92% |          28      1.46%     79.38% |          30      1.56%     80.94% |          28      1.46%     82.40% |          35      1.82%     84.22% |          35      1.82%     86.04% |          35      1.82%     87.86% |          24      1.25%     89.11% |          29      1.51%     90.62% |          33      1.72%     92.34% |          27      1.41%     93.75% |          29      1.51%     95.26% |          36      1.88%     97.14% |          25      1.30%     98.44% |          30      1.56%    100.00%
system.ruby.L1Cache_Controller.I.Request::total         1920                      
system.ruby.L1Cache_Controller.I.Response |          35      1.79%      1.79% |          41      2.10%      3.89% |          30      1.53%      5.42% |          27      1.38%      6.80% |          36      1.84%      8.64% |          31      1.59%     10.23% |          39      1.99%     12.23% |          24      1.23%     13.45% |          25      1.28%     14.73% |          26      1.33%     16.06% |          35      1.79%     17.85% |          33      1.69%     19.54% |          32      1.64%     21.18% |          27      1.38%     22.56% |          24      1.23%     23.79% |          41      2.10%     25.88% |          38      1.94%     27.83% |          35      1.79%     29.62% |          32      1.64%     31.25% |          31      1.59%     32.84% |          35      1.79%     34.63% |          31      1.59%     36.21% |          27      1.38%     37.60% |          34      1.74%     39.34% |          35      1.79%     41.13% |          31      1.59%     42.71% |          31      1.59%     44.30% |          25      1.28%     45.58% |          25      1.28%     46.85% |          26      1.33%     48.18% |          25      1.28%     49.46% |          22      1.13%     50.59% |          31      1.59%     52.17% |          30      1.53%     53.71% |          26      1.33%     55.04% |          31      1.59%     56.62% |          34      1.74%     58.36% |          24      1.23%     59.59% |          24      1.23%     60.82% |          31      1.59%     62.40% |          34      1.74%     64.14% |          32      1.64%     65.78% |          29      1.48%     67.26% |          35      1.79%     69.05% |          31      1.59%     70.64% |          37      1.89%     72.53% |          26      1.33%     73.86% |          31      1.59%     75.45% |          29      1.48%     76.93% |          36      1.84%     78.77% |          32      1.64%     80.41% |          36      1.84%     82.25% |          32      1.64%     83.89% |          29      1.48%     85.37% |          30      1.53%     86.91% |          28      1.43%     88.34% |          25      1.28%     89.62% |          37      1.89%     91.51% |          30      1.53%     93.04% |          30      1.53%     94.58% |          25      1.28%     95.86% |          23      1.18%     97.03% |          30      1.53%     98.57% |          28      1.43%    100.00%
system.ruby.L1Cache_Controller.I.Response::total         1955                      
system.ruby.L1Cache_Controller.Request   |          27      1.41%      1.41% |          25      1.30%      2.71% |          30      1.56%      4.27% |          32      1.67%      5.94% |          23      1.20%      7.14% |          38      1.98%      9.11% |          25      1.30%     10.42% |          32      1.67%     12.08% |          30      1.56%     13.65% |          30      1.56%     15.21% |          29      1.51%     16.72% |          32      1.67%     18.39% |          25      1.30%     19.69% |          34      1.77%     21.46% |          33      1.72%     23.18% |          27      1.41%     24.58% |          25      1.30%     25.89% |          22      1.15%     27.03% |          31      1.61%     28.65% |          24      1.25%     29.90% |          23      1.20%     31.09% |          29      1.51%     32.60% |          34      1.77%     34.38% |          31      1.61%     35.99% |          35      1.82%     37.81% |          33      1.72%     39.53% |          30      1.56%     41.09% |          33      1.72%     42.81% |          31      1.61%     44.43% |          28      1.46%     45.89% |          25      1.30%     47.19% |          31      1.61%     48.80% |          32      1.67%     50.47% |          34      1.77%     52.24% |          38      1.98%     54.22% |          27      1.41%     55.63% |          33      1.72%     57.34% |          30      1.56%     58.91% |          32      1.67%     60.57% |          29      1.51%     62.08% |          39      2.03%     64.11% |          29      1.51%     65.63% |          31      1.61%     67.24% |          33      1.72%     68.96% |          30      1.56%     70.52% |          21      1.09%     71.61% |          28      1.46%     73.07% |          35      1.82%     74.90% |          27      1.41%     76.30% |          31      1.61%     77.92% |          28      1.46%     79.38% |          30      1.56%     80.94% |          28      1.46%     82.40% |          35      1.82%     84.22% |          35      1.82%     86.04% |          35      1.82%     87.86% |          24      1.25%     89.11% |          29      1.51%     90.62% |          33      1.72%     92.34% |          27      1.41%     93.75% |          29      1.51%     95.26% |          36      1.88%     97.14% |          25      1.30%     98.44% |          30      1.56%    100.00%
system.ruby.L1Cache_Controller.Request::total         1920                      
system.ruby.L1Cache_Controller.Response  |          35      1.79%      1.79% |          41      2.10%      3.89% |          30      1.53%      5.42% |          27      1.38%      6.80% |          36      1.84%      8.64% |          31      1.59%     10.23% |          39      1.99%     12.23% |          24      1.23%     13.45% |          25      1.28%     14.73% |          26      1.33%     16.06% |          35      1.79%     17.85% |          33      1.69%     19.54% |          32      1.64%     21.18% |          27      1.38%     22.56% |          24      1.23%     23.79% |          41      2.10%     25.88% |          38      1.94%     27.83% |          35      1.79%     29.62% |          32      1.64%     31.25% |          31      1.59%     32.84% |          35      1.79%     34.63% |          31      1.59%     36.21% |          27      1.38%     37.60% |          34      1.74%     39.34% |          35      1.79%     41.13% |          31      1.59%     42.71% |          31      1.59%     44.30% |          25      1.28%     45.58% |          25      1.28%     46.85% |          26      1.33%     48.18% |          25      1.28%     49.46% |          22      1.13%     50.59% |          31      1.59%     52.17% |          30      1.53%     53.71% |          26      1.33%     55.04% |          31      1.59%     56.62% |          34      1.74%     58.36% |          24      1.23%     59.59% |          24      1.23%     60.82% |          31      1.59%     62.40% |          34      1.74%     64.14% |          32      1.64%     65.78% |          29      1.48%     67.26% |          35      1.79%     69.05% |          31      1.59%     70.64% |          37      1.89%     72.53% |          26      1.33%     73.86% |          31      1.59%     75.45% |          29      1.48%     76.93% |          36      1.84%     78.77% |          32      1.64%     80.41% |          36      1.84%     82.25% |          32      1.64%     83.89% |          29      1.48%     85.37% |          30      1.53%     86.91% |          28      1.43%     88.34% |          25      1.28%     89.62% |          37      1.89%     91.51% |          30      1.53%     93.04% |          30      1.53%     94.58% |          25      1.28%     95.86% |          23      1.18%     97.03% |          30      1.53%     98.57% |          28      1.43%    100.00%
system.ruby.L1Cache_Controller.Response::total         1955                      
system.ruby.LD.hit_latency_hist_seqr::bucket_size            1                      
system.ruby.LD.hit_latency_hist_seqr::max_bucket            9                      
system.ruby.LD.hit_latency_hist_seqr::samples         1920                      
system.ruby.LD.hit_latency_hist_seqr::mean     0.008333                      
system.ruby.LD.hit_latency_hist_seqr::stdev     0.090930                      
system.ruby.LD.hit_latency_hist_seqr     |        1904     99.17%     99.17% |          16      0.83%    100.00% |           0      0.00%    100.00% |           0      0.00%    100.00% |           0      0.00%    100.00% |           0      0.00%    100.00% |           0      0.00%    100.00% |           0      0.00%    100.00% |           0      0.00%    100.00% |           0      0.00%    100.00%
system.ruby.LD.hit_latency_hist_seqr::total         1920                      
system.ruby.LD.latency_hist_seqr::bucket_size            1                      
system.ruby.LD.latency_hist_seqr::max_bucket            9                      
system.ruby.LD.latency_hist_seqr::samples         1920                      
system.ruby.LD.latency_hist_seqr::mean       0.008333                      
system.ruby.LD.latency_hist_seqr::stdev      0.090930                      
system.ruby.LD.latency_hist_seqr         |        1904     99.17%     99.17% |          16      0.83%    100.00% |           0      0.00%    100.00% |           0      0.00%    100.00% |           0      0.00%    100.00% |           0      0.00%    100.00% |           0      0.00%    100.00% |           0      0.00%    100.00% |           0      0.00%    100.00% |           0      0.00%    100.00%
system.ruby.LD.latency_hist_seqr::total          1920                      
system.ruby.ST.hit_latency_hist_seqr::bucket_size            1                      
system.ruby.ST.hit_latency_hist_seqr::max_bucket            9                      
system.ruby.ST.hit_latency_hist_seqr::samples         1955                      
system.ruby.ST.hit_latency_hist_seqr::mean     0.010742                      
system.ruby.ST.hit_latency_hist_seqr::stdev     0.103110                      
system.ruby.ST.hit_latency_hist_seqr     |        1934     98.93%     98.93% |          21      1.07%    100.00% |           0      0.00%    100.00% |           0      0.00%    100.00% |           0      0.00%    100.00% |           0      0.00%    100.00% |           0      0.00%    100.00% |           0      0.00%    100.00% |           0      0.00%    100.00% |           0      0.00%    100.00%
system.ruby.ST.hit_latency_hist_seqr::total         1955                      
system.ruby.ST.latency_hist_seqr::bucket_size            1                      
system.ruby.ST.latency_hist_seqr::max_bucket            9                      
system.ruby.ST.latency_hist_seqr::samples         1955                      
system.ruby.ST.latency_hist_seqr::mean       0.010742                      
system.ruby.ST.latency_hist_seqr::stdev      0.103110                      
system.ruby.ST.latency_hist_seqr         |        1934     98.93%     98.93% |          21      1.07%    100.00% |           0      0.00%    100.00% |           0      0.00%    100.00% |           0      0.00%    100.00% |           0      0.00%    100.00% |           0      0.00%    100.00% |           0      0.00%    100.00% |           0      0.00%    100.00% |           0      0.00%    100.00%
system.ruby.ST.latency_hist_seqr::total          1955                      
system.ruby.dir_cntrl0.forwardToDir.avg_buf_msgs     0.015000                       # Average number of messages in buffer
system.ruby.dir_cntrl0.forwardToDir.avg_stall_time  5035.019650                       # Average number of cycles messages are stalled in this MB
system.ruby.dir_cntrl10.forwardToDir.avg_buf_msgs     0.005000                       # Average number of messages in buffer
system.ruby.dir_cntrl10.forwardToDir.avg_stall_time  3025.019750                       # Average number of cycles messages are stalled in this MB
system.ruby.dir_cntrl10.requestToDir.avg_buf_msgs     0.010000                       # Average number of messages in buffer
system.ruby.dir_cntrl10.requestToDir.avg_stall_time  6339.971600                       # Average number of cycles messages are stalled in this MB
system.ruby.dir_cntrl11.forwardToDir.avg_buf_msgs     0.010000                       # Average number of messages in buffer
system.ruby.dir_cntrl11.forwardToDir.avg_stall_time  8380.021200                       # Average number of cycles messages are stalled in this MB
system.ruby.dir_cntrl11.requestToDir.avg_buf_msgs     0.020000                       # Average number of messages in buffer
system.ruby.dir_cntrl11.requestToDir.avg_stall_time 10364.956350                       # Average number of cycles messages are stalled in this MB
system.ruby.dir_cntrl11.responseToDir.avg_buf_msgs     0.010000                       # Average number of messages in buffer
system.ruby.dir_cntrl11.responseToDir.avg_stall_time 24510.249898                       # Average number of cycles messages are stalled in this MB
system.ruby.dir_cntrl12.responseToDir.avg_buf_msgs     0.005000                       # Average number of messages in buffer
system.ruby.dir_cntrl12.responseToDir.avg_stall_time  8820.191798                       # Average number of cycles messages are stalled in this MB
system.ruby.dir_cntrl13.forwardToDir.avg_buf_msgs     0.005000                       # Average number of messages in buffer
system.ruby.dir_cntrl13.forwardToDir.avg_stall_time  5780.027200                       # Average number of cycles messages are stalled in this MB
system.ruby.dir_cntrl14.forwardToDir.avg_buf_msgs     0.005000                       # Average number of messages in buffer
system.ruby.dir_cntrl14.forwardToDir.avg_stall_time  3255.002450                       # Average number of cycles messages are stalled in this MB
system.ruby.dir_cntrl14.requestToDir.avg_buf_msgs     0.005000                       # Average number of messages in buffer
system.ruby.dir_cntrl14.requestToDir.avg_stall_time  1540.024600                       # Average number of cycles messages are stalled in this MB
system.ruby.dir_cntrl15.forwardToDir.avg_buf_msgs     0.005000                       # Average number of messages in buffer
system.ruby.dir_cntrl15.forwardToDir.avg_stall_time  4590.014100                       # Average number of cycles messages are stalled in this MB
system.ruby.dir_cntrl15.requestToDir.avg_buf_msgs     0.000010                       # Average number of messages in buffer
system.ruby.dir_cntrl16.responseToDir.avg_buf_msgs     0.005000                       # Average number of messages in buffer
system.ruby.dir_cntrl16.responseToDir.avg_stall_time  5445.275547                       # Average number of cycles messages are stalled in this MB
system.ruby.dir_cntrl19.forwardToDir.avg_buf_msgs     0.005000                       # Average number of messages in buffer
system.ruby.dir_cntrl19.forwardToDir.avg_stall_time  3825.011750                       # Average number of cycles messages are stalled in this MB
system.ruby.dir_cntrl19.requestToDir.avg_buf_msgs     0.005000                       # Average number of messages in buffer
system.ruby.dir_cntrl19.requestToDir.avg_stall_time  2825.021750                       # Average number of cycles messages are stalled in this MB
system.ruby.dir_cntrl2.requestToDir.avg_buf_msgs     0.010000                       # Average number of messages in buffer
system.ruby.dir_cntrl2.requestToDir.avg_stall_time  6005.004950                       # Average number of cycles messages are stalled in this MB
system.ruby.dir_cntrl20.forwardToDir.avg_buf_msgs     0.005000                       # Average number of messages in buffer
system.ruby.dir_cntrl20.forwardToDir.avg_stall_time  2145.043550                       # Average number of cycles messages are stalled in this MB
system.ruby.dir_cntrl21.forwardToDir.avg_buf_msgs     0.005000                       # Average number of messages in buffer
system.ruby.dir_cntrl21.forwardToDir.avg_stall_time 11430.065699                       # Average number of cycles messages are stalled in this MB
system.ruby.dir_cntrl23.forwardToDir.avg_buf_msgs     0.010000                       # Average number of messages in buffer
system.ruby.dir_cntrl23.forwardToDir.avg_stall_time  5859.976400                       # Average number of cycles messages are stalled in this MB
system.ruby.dir_cntrl23.requestToDir.avg_buf_msgs     0.015000                       # Average number of messages in buffer
system.ruby.dir_cntrl23.requestToDir.avg_stall_time 11302.526975                       # Average number of cycles messages are stalled in this MB
system.ruby.dir_cntrl24.forwardToDir.avg_buf_msgs     0.005000                       # Average number of messages in buffer
system.ruby.dir_cntrl24.forwardToDir.avg_stall_time  2255.032450                       # Average number of cycles messages are stalled in this MB
system.ruby.dir_cntrl24.responseToDir.avg_buf_msgs     0.005000                       # Average number of messages in buffer
system.ruby.dir_cntrl24.responseToDir.avg_stall_time  6600.333997                       # Average number of cycles messages are stalled in this MB
system.ruby.dir_cntrl25.forwardToDir.avg_buf_msgs     0.005000                       # Average number of messages in buffer
system.ruby.dir_cntrl25.forwardToDir.avg_stall_time 11445.095549                       # Average number of cycles messages are stalled in this MB
system.ruby.dir_cntrl25.requestToDir.avg_buf_msgs     0.010000                       # Average number of messages in buffer
system.ruby.dir_cntrl25.requestToDir.avg_stall_time 15292.627074                       # Average number of cycles messages are stalled in this MB
system.ruby.dir_cntrl25.responseToDir.avg_buf_msgs     0.005000                       # Average number of messages in buffer
system.ruby.dir_cntrl25.responseToDir.avg_stall_time  3870.606294                       # Average number of cycles messages are stalled in this MB
system.ruby.dir_cntrl26.responseToDir.avg_buf_msgs     0.005000                       # Average number of messages in buffer
system.ruby.dir_cntrl26.responseToDir.avg_stall_time 13865.156348                       # Average number of cycles messages are stalled in this MB
system.ruby.dir_cntrl27.forwardToDir.avg_buf_msgs     0.005000                       # Average number of messages in buffer
system.ruby.dir_cntrl27.forwardToDir.avg_stall_time  3600.039000                       # Average number of cycles messages are stalled in this MB
system.ruby.dir_cntrl27.requestToDir.avg_buf_msgs     0.010000                       # Average number of messages in buffer
system.ruby.dir_cntrl27.requestToDir.avg_stall_time  4425.010750                       # Average number of cycles messages are stalled in this MB
system.ruby.dir_cntrl28.forwardToDir.avg_buf_msgs     0.005000                       # Average number of messages in buffer
system.ruby.dir_cntrl28.forwardToDir.avg_stall_time  3220.002800                       # Average number of cycles messages are stalled in this MB
system.ruby.dir_cntrl29.requestToDir.avg_buf_msgs     0.005000                       # Average number of messages in buffer
system.ruby.dir_cntrl29.requestToDir.avg_stall_time  5925.015750                       # Average number of cycles messages are stalled in this MB
system.ruby.dir_cntrl29.responseToDir.avg_buf_msgs     0.005000                       # Average number of messages in buffer
system.ruby.dir_cntrl29.responseToDir.avg_stall_time 23765.252347                       # Average number of cycles messages are stalled in this MB
system.ruby.dir_cntrl3.requestToDir.avg_buf_msgs     0.005000                       # Average number of messages in buffer
system.ruby.dir_cntrl3.requestToDir.avg_stall_time  2490.035100                       # Average number of cycles messages are stalled in this MB
system.ruby.dir_cntrl3.responseToDir.avg_buf_msgs     0.010000                       # Average number of messages in buffer
system.ruby.dir_cntrl3.responseToDir.avg_stall_time 15585.159148                       # Average number of cycles messages are stalled in this MB
system.ruby.dir_cntrl30.forwardToDir.avg_buf_msgs     0.005000                       # Average number of messages in buffer
system.ruby.dir_cntrl30.forwardToDir.avg_stall_time  3325.001750                       # Average number of cycles messages are stalled in this MB
system.ruby.dir_cntrl31.requestToDir.avg_buf_msgs     0.005000                       # Average number of messages in buffer
system.ruby.dir_cntrl31.requestToDir.avg_stall_time  1725.057749                       # Average number of cycles messages are stalled in this MB
system.ruby.dir_cntrl31.responseToDir.avg_buf_msgs     0.010000                       # Average number of messages in buffer
system.ruby.dir_cntrl31.responseToDir.avg_stall_time 10755.562444                       # Average number of cycles messages are stalled in this MB
system.ruby.dir_cntrl32.requestToDir.avg_buf_msgs     0.005000                       # Average number of messages in buffer
system.ruby.dir_cntrl32.requestToDir.avg_stall_time   580.034200                       # Average number of cycles messages are stalled in this MB
system.ruby.dir_cntrl33.forwardToDir.avg_buf_msgs     0.005000                       # Average number of messages in buffer
system.ruby.dir_cntrl33.forwardToDir.avg_stall_time  8750.052499                       # Average number of cycles messages are stalled in this MB
system.ruby.dir_cntrl33.requestToDir.avg_buf_msgs     0.005000                       # Average number of messages in buffer
system.ruby.dir_cntrl33.requestToDir.avg_stall_time 10585.184148                       # Average number of cycles messages are stalled in this MB
system.ruby.dir_cntrl33.responseToDir.avg_buf_msgs     0.005000                       # Average number of messages in buffer
system.ruby.dir_cntrl33.responseToDir.avg_stall_time 19500.404996                       # Average number of cycles messages are stalled in this MB
system.ruby.dir_cntrl34.requestToDir.avg_buf_msgs     0.005000                       # Average number of messages in buffer
system.ruby.dir_cntrl34.requestToDir.avg_stall_time  1995.015050                       # Average number of cycles messages are stalled in this MB
system.ruby.dir_cntrl34.responseToDir.avg_buf_msgs     0.005000                       # Average number of messages in buffer
system.ruby.dir_cntrl34.responseToDir.avg_stall_time 14940.210598                       # Average number of cycles messages are stalled in this MB
system.ruby.dir_cntrl35.forwardToDir.avg_buf_msgs     0.005000                       # Average number of messages in buffer
system.ruby.dir_cntrl35.forwardToDir.avg_stall_time  1705.292947                       # Average number of cycles messages are stalled in this MB
system.ruby.dir_cntrl35.requestToDir.avg_buf_msgs     0.010000                       # Average number of messages in buffer
system.ruby.dir_cntrl35.requestToDir.avg_stall_time 21632.773672                       # Average number of cycles messages are stalled in this MB
system.ruby.dir_cntrl35.responseToDir.avg_buf_msgs     0.005000                       # Average number of messages in buffer
system.ruby.dir_cntrl35.responseToDir.avg_stall_time 12880.676193                       # Average number of cycles messages are stalled in this MB
system.ruby.dir_cntrl36.responseToDir.avg_buf_msgs     0.005000                       # Average number of messages in buffer
system.ruby.dir_cntrl36.responseToDir.avg_stall_time  6000.419996                       # Average number of cycles messages are stalled in this MB
system.ruby.dir_cntrl37.requestToDir.avg_buf_msgs     0.005000                       # Average number of messages in buffer
system.ruby.dir_cntrl37.requestToDir.avg_stall_time  3010.004900                       # Average number of cycles messages are stalled in this MB
system.ruby.dir_cntrl38.requestToDir.avg_buf_msgs     0.005000                       # Average number of messages in buffer
system.ruby.dir_cntrl38.requestToDir.avg_stall_time  8085.024150                       # Average number of cycles messages are stalled in this MB
system.ruby.dir_cntrl39.forwardToDir.avg_buf_msgs     0.005000                       # Average number of messages in buffer
system.ruby.dir_cntrl39.forwardToDir.avg_stall_time   665.028350                       # Average number of cycles messages are stalled in this MB
system.ruby.dir_cntrl39.requestToDir.avg_buf_msgs     0.010000                       # Average number of messages in buffer
system.ruby.dir_cntrl39.requestToDir.avg_stall_time  4742.492575                       # Average number of cycles messages are stalled in this MB
system.ruby.dir_cntrl4.forwardToDir.avg_buf_msgs     0.005000                       # Average number of messages in buffer
system.ruby.dir_cntrl4.forwardToDir.avg_stall_time   140.033600                       # Average number of cycles messages are stalled in this MB
system.ruby.dir_cntrl4.responseToDir.avg_buf_msgs     0.005000                       # Average number of messages in buffer
system.ruby.dir_cntrl4.responseToDir.avg_stall_time 12360.116399                       # Average number of cycles messages are stalled in this MB
system.ruby.dir_cntrl41.requestToDir.avg_buf_msgs     0.005000                       # Average number of messages in buffer
system.ruby.dir_cntrl41.requestToDir.avg_stall_time   135.043650                       # Average number of cycles messages are stalled in this MB
system.ruby.dir_cntrl42.requestToDir.avg_buf_msgs     0.005000                       # Average number of messages in buffer
system.ruby.dir_cntrl42.requestToDir.avg_stall_time  4475.005250                       # Average number of cycles messages are stalled in this MB
system.ruby.dir_cntrl44.forwardToDir.avg_buf_msgs     0.005000                       # Average number of messages in buffer
system.ruby.dir_cntrl44.forwardToDir.avg_stall_time   735.027650                       # Average number of cycles messages are stalled in this MB
system.ruby.dir_cntrl44.requestToDir.avg_buf_msgs     0.005000                       # Average number of messages in buffer
system.ruby.dir_cntrl44.requestToDir.avg_stall_time  4655.023450                       # Average number of cycles messages are stalled in this MB
system.ruby.dir_cntrl47.forwardToDir.avg_buf_msgs     0.010000                       # Average number of messages in buffer
system.ruby.dir_cntrl47.forwardToDir.avg_stall_time  1985.025150                       # Average number of cycles messages are stalled in this MB
system.ruby.dir_cntrl47.requestToDir.avg_buf_msgs     0.010000                       # Average number of messages in buffer
system.ruby.dir_cntrl47.requestToDir.avg_stall_time  6162.578374                       # Average number of cycles messages are stalled in this MB
system.ruby.dir_cntrl47.responseToDir.avg_buf_msgs     0.005000                       # Average number of messages in buffer
system.ruby.dir_cntrl47.responseToDir.avg_stall_time 19345.536545                       # Average number of cycles messages are stalled in this MB
system.ruby.dir_cntrl49.forwardToDir.avg_buf_msgs     0.010000                       # Average number of messages in buffer
system.ruby.dir_cntrl49.forwardToDir.avg_stall_time  2140.023600                       # Average number of cycles messages are stalled in this MB
system.ruby.dir_cntrl49.requestToDir.avg_buf_msgs     0.005000                       # Average number of messages in buffer
system.ruby.dir_cntrl49.requestToDir.avg_stall_time  2250.022500                       # Average number of cycles messages are stalled in this MB
system.ruby.dir_cntrl51.forwardToDir.avg_buf_msgs     0.005000                       # Average number of messages in buffer
system.ruby.dir_cntrl51.forwardToDir.avg_stall_time  1085.024150                       # Average number of cycles messages are stalled in this MB
system.ruby.dir_cntrl51.requestToDir.avg_buf_msgs     0.005000                       # Average number of messages in buffer
system.ruby.dir_cntrl51.requestToDir.avg_stall_time  1035.034650                       # Average number of cycles messages are stalled in this MB
system.ruby.dir_cntrl51.responseToDir.avg_buf_msgs     0.010000                       # Average number of messages in buffer
system.ruby.dir_cntrl51.responseToDir.avg_stall_time  5813.071869                       # Average number of cycles messages are stalled in this MB
system.ruby.dir_cntrl53.forwardToDir.avg_buf_msgs     0.005000                       # Average number of messages in buffer
system.ruby.dir_cntrl53.forwardToDir.avg_stall_time  1015.024850                       # Average number of cycles messages are stalled in this MB
system.ruby.dir_cntrl53.requestToDir.avg_buf_msgs     0.005000                       # Average number of messages in buffer
system.ruby.dir_cntrl53.requestToDir.avg_stall_time  2975.005250                       # Average number of cycles messages are stalled in this MB
system.ruby.dir_cntrl55.requestToDir.avg_buf_msgs     0.005000                       # Average number of messages in buffer
system.ruby.dir_cntrl55.requestToDir.avg_stall_time  3925.010750                       # Average number of cycles messages are stalled in this MB
system.ruby.dir_cntrl55.responseToDir.avg_buf_msgs     0.005000                       # Average number of messages in buffer
system.ruby.dir_cntrl55.responseToDir.avg_stall_time  8930.290697                       # Average number of cycles messages are stalled in this MB
system.ruby.dir_cntrl56.requestToDir.avg_buf_msgs     0.005000                       # Average number of messages in buffer
system.ruby.dir_cntrl56.requestToDir.avg_stall_time  5005.019950                       # Average number of cycles messages are stalled in this MB
system.ruby.dir_cntrl57.requestToDir.avg_buf_msgs     0.015000                       # Average number of messages in buffer
system.ruby.dir_cntrl57.requestToDir.avg_stall_time  4459.990400                       # Average number of cycles messages are stalled in this MB
system.ruby.dir_cntrl57.responseToDir.avg_buf_msgs     0.005000                       # Average number of messages in buffer
system.ruby.dir_cntrl57.responseToDir.avg_stall_time  6510.354896                       # Average number of cycles messages are stalled in this MB
system.ruby.dir_cntrl58.requestToDir.avg_buf_msgs     0.005000                       # Average number of messages in buffer
system.ruby.dir_cntrl58.requestToDir.avg_stall_time  1085.024150                       # Average number of cycles messages are stalled in this MB
system.ruby.dir_cntrl58.responseToDir.avg_buf_msgs     0.005000                       # Average number of messages in buffer
system.ruby.dir_cntrl58.responseToDir.avg_stall_time 15695.273047                       # Average number of cycles messages are stalled in this MB
system.ruby.dir_cntrl59.forwardToDir.avg_buf_msgs     0.010000                       # Average number of messages in buffer
system.ruby.dir_cntrl59.forwardToDir.avg_stall_time  3612.513875                       # Average number of cycles messages are stalled in this MB
system.ruby.dir_cntrl6.forwardToDir.avg_buf_msgs     0.005000                       # Average number of messages in buffer
system.ruby.dir_cntrl6.forwardToDir.avg_stall_time  1190.023100                       # Average number of cycles messages are stalled in this MB
system.ruby.dir_cntrl6.responseToDir.avg_buf_msgs     0.005000                       # Average number of messages in buffer
system.ruby.dir_cntrl6.responseToDir.avg_stall_time 16685.188148                       # Average number of cycles messages are stalled in this MB
system.ruby.dir_cntrl60.responseToDir.avg_buf_msgs     0.005000                       # Average number of messages in buffer
system.ruby.dir_cntrl60.responseToDir.avg_stall_time  7650.008500                       # Average number of cycles messages are stalled in this MB
system.ruby.dir_cntrl63.requestToDir.avg_buf_msgs     0.005000                       # Average number of messages in buffer
system.ruby.dir_cntrl63.requestToDir.avg_stall_time  5400.026000                       # Average number of cycles messages are stalled in this MB
system.ruby.dir_cntrl8.forwardToDir.avg_buf_msgs     0.005000                       # Average number of messages in buffer
system.ruby.dir_cntrl8.forwardToDir.avg_stall_time  4355.021450                       # Average number of cycles messages are stalled in this MB
system.ruby.dir_cntrl9.requestToDir.avg_buf_msgs     0.015000                       # Average number of messages in buffer
system.ruby.dir_cntrl9.requestToDir.avg_stall_time  4834.986650                       # Average number of cycles messages are stalled in this MB
system.ruby.hit_latency_hist_seqr::bucket_size            1                      
system.ruby.hit_latency_hist_seqr::max_bucket            9                      
system.ruby.hit_latency_hist_seqr::samples         5764                      
system.ruby.hit_latency_hist_seqr::mean      0.009368                      
system.ruby.hit_latency_hist_seqr::stdev     0.096345                      
system.ruby.hit_latency_hist_seqr        |        5710     99.06%     99.06% |          54      0.94%    100.00% |           0      0.00%    100.00% |           0      0.00%    100.00% |           0      0.00%    100.00% |           0      0.00%    100.00% |           0      0.00%    100.00% |           0      0.00%    100.00% |           0      0.00%    100.00% |           0      0.00%    100.00%
system.ruby.hit_latency_hist_seqr::total         5764                      
system.ruby.l1_cntrl0.cacheMemory.demand_accesses            0                       # Number of cache demand accesses
system.ruby.l1_cntrl0.cacheMemory.demand_hits            0                       # Number of cache demand hits
system.ruby.l1_cntrl0.cacheMemory.demand_misses            0                       # Number of cache demand misses
system.ruby.l1_cntrl0.forwardFromCache.avg_buf_msgs     0.259997                       # Average number of messages in buffer
system.ruby.l1_cntrl0.forwardFromCache.avg_stall_time   955.000450                       # Average number of cycles messages are stalled in this MB
system.ruby.l1_cntrl0.mandatoryQueue.avg_buf_msgs     0.439996                       # Average number of messages in buffer
system.ruby.l1_cntrl0.mandatoryQueue.avg_stall_time   497.500025                       # Average number of cycles messages are stalled in this MB
system.ruby.l1_cntrl0.requestFromCache.avg_buf_msgs     0.269997                       # Average number of messages in buffer
system.ruby.l1_cntrl0.requestFromCache.avg_stall_time   915.000850                       # Average number of cycles messages are stalled in this MB
system.ruby.l1_cntrl0.responseFromCache.avg_buf_msgs     5.255117                       # Average number of messages in buffer
system.ruby.l1_cntrl0.responseFromCache.avg_stall_time  7247.782522                       # Average number of cycles messages are stalled in this MB
system.ruby.l1_cntrl1.cacheMemory.demand_accesses            0                       # Number of cache demand accesses
system.ruby.l1_cntrl1.cacheMemory.demand_hits            0                       # Number of cache demand hits
system.ruby.l1_cntrl1.cacheMemory.demand_misses            0                       # Number of cache demand misses
system.ruby.l1_cntrl1.forwardFromCache.avg_buf_msgs     0.229998                       # Average number of messages in buffer
system.ruby.l1_cntrl1.forwardFromCache.avg_stall_time   915.000850                       # Average number of cycles messages are stalled in this MB
system.ruby.l1_cntrl1.mandatoryQueue.avg_buf_msgs     0.445006                       # Average number of messages in buffer
system.ruby.l1_cntrl1.mandatoryQueue.avg_stall_time   492.500075                       # Average number of cycles messages are stalled in this MB
system.ruby.l1_cntrl1.requestFromCache.avg_buf_msgs     0.249998                       # Average number of messages in buffer
system.ruby.l1_cntrl1.requestFromCache.avg_stall_time   975.000250                       # Average number of cycles messages are stalled in this MB
system.ruby.l1_cntrl1.responseFromCache.avg_buf_msgs     8.375156                       # Average number of messages in buffer
system.ruby.l1_cntrl1.responseFromCache.avg_stall_time 16402.755972                       # Average number of cycles messages are stalled in this MB
system.ruby.l1_cntrl10.cacheMemory.demand_accesses            0                       # Number of cache demand accesses
system.ruby.l1_cntrl10.cacheMemory.demand_hits            0                       # Number of cache demand hits
system.ruby.l1_cntrl10.cacheMemory.demand_misses            0                       # Number of cache demand misses
system.ruby.l1_cntrl10.forwardFromCache.avg_buf_msgs     0.209998                       # Average number of messages in buffer
system.ruby.l1_cntrl10.forwardFromCache.avg_stall_time   845.001550                       # Average number of cycles messages are stalled in this MB
system.ruby.l1_cntrl10.mandatoryQueue.avg_buf_msgs     0.425006                       # Average number of messages in buffer
system.ruby.l1_cntrl10.mandatoryQueue.avg_stall_time   492.500075                       # Average number of cycles messages are stalled in this MB
system.ruby.l1_cntrl10.requestFromCache.avg_buf_msgs     0.285007                       # Average number of messages in buffer
system.ruby.l1_cntrl10.requestFromCache.avg_stall_time   965.000350                       # Average number of cycles messages are stalled in this MB
system.ruby.l1_cntrl10.responseFromCache.avg_buf_msgs     6.505145                       # Average number of messages in buffer
system.ruby.l1_cntrl10.responseFromCache.avg_stall_time 10240.117599                       # Average number of cycles messages are stalled in this MB
system.ruby.l1_cntrl11.cacheMemory.demand_accesses            0                       # Number of cache demand accesses
system.ruby.l1_cntrl11.cacheMemory.demand_hits            0                       # Number of cache demand hits
system.ruby.l1_cntrl11.cacheMemory.demand_misses            0                       # Number of cache demand misses
system.ruby.l1_cntrl11.forwardFromCache.avg_buf_msgs     0.255007                       # Average number of messages in buffer
system.ruby.l1_cntrl11.forwardFromCache.avg_stall_time   955.000450                       # Average number of cycles messages are stalled in this MB
system.ruby.l1_cntrl11.mandatoryQueue.avg_buf_msgs     0.455005                       # Average number of messages in buffer
system.ruby.l1_cntrl11.mandatoryQueue.avg_stall_time   497.500025                       # Average number of cycles messages are stalled in this MB
system.ruby.l1_cntrl11.requestFromCache.avg_buf_msgs     0.319997                       # Average number of messages in buffer
system.ruby.l1_cntrl11.requestFromCache.avg_stall_time   975.000250                       # Average number of cycles messages are stalled in this MB
system.ruby.l1_cntrl11.responseFromCache.avg_buf_msgs     4.575104                       # Average number of messages in buffer
system.ruby.l1_cntrl11.responseFromCache.avg_stall_time  9552.724473                       # Average number of cycles messages are stalled in this MB
system.ruby.l1_cntrl12.cacheMemory.demand_accesses            0                       # Number of cache demand accesses
system.ruby.l1_cntrl12.cacheMemory.demand_hits            0                       # Number of cache demand hits
system.ruby.l1_cntrl12.cacheMemory.demand_misses            0                       # Number of cache demand misses
system.ruby.l1_cntrl12.forwardFromCache.avg_buf_msgs     0.295007                       # Average number of messages in buffer
system.ruby.l1_cntrl12.forwardFromCache.avg_stall_time   935.000650                       # Average number of cycles messages are stalled in this MB
system.ruby.l1_cntrl12.mandatoryQueue.avg_buf_msgs     0.435006                       # Average number of messages in buffer
system.ruby.l1_cntrl12.mandatoryQueue.avg_stall_time   497.500025                       # Average number of cycles messages are stalled in this MB
system.ruby.l1_cntrl12.requestFromCache.avg_buf_msgs     0.249998                       # Average number of messages in buffer
system.ruby.l1_cntrl12.requestFromCache.avg_stall_time   985.000150                       # Average number of cycles messages are stalled in this MB
system.ruby.l1_cntrl12.responseFromCache.avg_buf_msgs     4.335107                       # Average number of messages in buffer
system.ruby.l1_cntrl12.responseFromCache.avg_stall_time  7525.124749                       # Average number of cycles messages are stalled in this MB
system.ruby.l1_cntrl13.cacheMemory.demand_accesses            0                       # Number of cache demand accesses
system.ruby.l1_cntrl13.cacheMemory.demand_hits            0                       # Number of cache demand hits
system.ruby.l1_cntrl13.cacheMemory.demand_misses            0                       # Number of cache demand misses
system.ruby.l1_cntrl13.forwardFromCache.avg_buf_msgs     0.390006                       # Average number of messages in buffer
system.ruby.l1_cntrl13.forwardFromCache.avg_stall_time  1022.499775                       # Average number of cycles messages are stalled in this MB
system.ruby.l1_cntrl13.mandatoryQueue.avg_buf_msgs     0.475005                       # Average number of messages in buffer
system.ruby.l1_cntrl13.mandatoryQueue.avg_stall_time   497.500025                       # Average number of cycles messages are stalled in this MB
system.ruby.l1_cntrl13.requestFromCache.avg_buf_msgs     0.730043                       # Average number of messages in buffer
system.ruby.l1_cntrl13.requestFromCache.avg_stall_time  1287.512125                       # Average number of cycles messages are stalled in this MB
system.ruby.l1_cntrl13.responseFromCache.avg_buf_msgs     1.555074                       # Average number of messages in buffer
system.ruby.l1_cntrl13.responseFromCache.avg_stall_time  3925.035750                       # Average number of cycles messages are stalled in this MB
system.ruby.l1_cntrl14.cacheMemory.demand_accesses            0                       # Number of cache demand accesses
system.ruby.l1_cntrl14.cacheMemory.demand_hits            0                       # Number of cache demand hits
system.ruby.l1_cntrl14.cacheMemory.demand_misses            0                       # Number of cache demand misses
system.ruby.l1_cntrl14.forwardFromCache.avg_buf_msgs     1.770082                       # Average number of messages in buffer
system.ruby.l1_cntrl14.forwardFromCache.avg_stall_time  2275.227248                       # Average number of cycles messages are stalled in this MB
system.ruby.l1_cntrl14.mandatoryQueue.avg_buf_msgs     0.470005                       # Average number of messages in buffer
system.ruby.l1_cntrl14.mandatoryQueue.avg_stall_time   497.500025                       # Average number of cycles messages are stalled in this MB
system.ruby.l1_cntrl14.requestFromCache.avg_buf_msgs     0.335007                       # Average number of messages in buffer
system.ruby.l1_cntrl14.requestFromCache.avg_stall_time  1080.009200                       # Average number of cycles messages are stalled in this MB
system.ruby.l1_cntrl14.responseFromCache.avg_buf_msgs     4.015080                       # Average number of messages in buffer
system.ruby.l1_cntrl14.responseFromCache.avg_stall_time 10887.741123                       # Average number of cycles messages are stalled in this MB
system.ruby.l1_cntrl15.cacheMemory.demand_accesses            0                       # Number of cache demand accesses
system.ruby.l1_cntrl15.cacheMemory.demand_hits            0                       # Number of cache demand hits
system.ruby.l1_cntrl15.cacheMemory.demand_misses            0                       # Number of cache demand misses
system.ruby.l1_cntrl15.forwardFromCache.avg_buf_msgs     0.269997                       # Average number of messages in buffer
system.ruby.l1_cntrl15.forwardFromCache.avg_stall_time  1010.009900                       # Average number of cycles messages are stalled in this MB
system.ruby.l1_cntrl15.mandatoryQueue.avg_buf_msgs     0.470005                       # Average number of messages in buffer
system.ruby.l1_cntrl15.mandatoryQueue.avg_stall_time   497.500025                       # Average number of cycles messages are stalled in this MB
system.ruby.l1_cntrl15.requestFromCache.avg_buf_msgs     0.269997                       # Average number of messages in buffer
system.ruby.l1_cntrl15.requestFromCache.avg_stall_time   965.000350                       # Average number of cycles messages are stalled in this MB
system.ruby.l1_cntrl15.responseFromCache.avg_buf_msgs    12.665133                       # Average number of messages in buffer
system.ruby.l1_cntrl15.responseFromCache.avg_stall_time 13310.366896                       # Average number of cycles messages are stalled in this MB
system.ruby.l1_cntrl16.cacheMemory.demand_accesses            0                       # Number of cache demand accesses
system.ruby.l1_cntrl16.cacheMemory.demand_hits            0                       # Number of cache demand hits
system.ruby.l1_cntrl16.cacheMemory.demand_misses            0                       # Number of cache demand misses
system.ruby.l1_cntrl16.forwardFromCache.avg_buf_msgs     0.289997                       # Average number of messages in buffer
system.ruby.l1_cntrl16.forwardFromCache.avg_stall_time   965.000350                       # Average number of cycles messages are stalled in this MB
system.ruby.l1_cntrl16.mandatoryQueue.avg_buf_msgs     0.460005                       # Average number of messages in buffer
system.ruby.l1_cntrl16.mandatoryQueue.avg_stall_time   497.500025                       # Average number of cycles messages are stalled in this MB
system.ruby.l1_cntrl16.requestFromCache.avg_buf_msgs     0.245008                       # Average number of messages in buffer
system.ruby.l1_cntrl16.requestFromCache.avg_stall_time   975.000250                       # Average number of cycles messages are stalled in this MB
system.ruby.l1_cntrl16.responseFromCache.avg_buf_msgs     6.160148                       # Average number of messages in buffer
system.ruby.l1_cntrl16.responseFromCache.avg_stall_time 10140.303597                       # Average number of cycles messages are stalled in this MB
system.ruby.l1_cntrl17.cacheMemory.demand_accesses            0                       # Number of cache demand accesses
system.ruby.l1_cntrl17.cacheMemory.demand_hits            0                       # Number of cache demand hits
system.ruby.l1_cntrl17.cacheMemory.demand_misses            0                       # Number of cache demand misses
system.ruby.l1_cntrl17.forwardFromCache.avg_buf_msgs     0.335007                       # Average number of messages in buffer
system.ruby.l1_cntrl17.forwardFromCache.avg_stall_time   955.000450                       # Average number of cycles messages are stalled in this MB
system.ruby.l1_cntrl17.mandatoryQueue.avg_buf_msgs     0.455005                       # Average number of messages in buffer
system.ruby.l1_cntrl17.mandatoryQueue.avg_stall_time   497.500025                       # Average number of cycles messages are stalled in this MB
system.ruby.l1_cntrl17.requestFromCache.avg_buf_msgs     0.219998                       # Average number of messages in buffer
system.ruby.l1_cntrl17.requestFromCache.avg_stall_time   975.000250                       # Average number of cycles messages are stalled in this MB
system.ruby.l1_cntrl17.responseFromCache.avg_buf_msgs     7.225118                       # Average number of messages in buffer
system.ruby.l1_cntrl17.responseFromCache.avg_stall_time 15412.745873                       # Average number of cycles messages are stalled in this MB
system.ruby.l1_cntrl18.cacheMemory.demand_accesses            0                       # Number of cache demand accesses
system.ruby.l1_cntrl18.cacheMemory.demand_hits            0                       # Number of cache demand hits
system.ruby.l1_cntrl18.cacheMemory.demand_misses            0                       # Number of cache demand misses
system.ruby.l1_cntrl18.forwardFromCache.avg_buf_msgs     0.219998                       # Average number of messages in buffer
system.ruby.l1_cntrl18.forwardFromCache.avg_stall_time   915.000850                       # Average number of cycles messages are stalled in this MB
system.ruby.l1_cntrl18.mandatoryQueue.avg_buf_msgs     0.425006                       # Average number of messages in buffer
system.ruby.l1_cntrl18.mandatoryQueue.avg_stall_time   497.500025                       # Average number of cycles messages are stalled in this MB
system.ruby.l1_cntrl18.requestFromCache.avg_buf_msgs     0.305007                       # Average number of messages in buffer
system.ruby.l1_cntrl18.requestFromCache.avg_stall_time   965.000350                       # Average number of cycles messages are stalled in this MB
system.ruby.l1_cntrl18.responseFromCache.avg_buf_msgs     6.430126                       # Average number of messages in buffer
system.ruby.l1_cntrl18.responseFromCache.avg_stall_time 11617.643824                       # Average number of cycles messages are stalled in this MB
system.ruby.l1_cntrl19.cacheMemory.demand_accesses            0                       # Number of cache demand accesses
system.ruby.l1_cntrl19.cacheMemory.demand_hits            0                       # Number of cache demand hits
system.ruby.l1_cntrl19.cacheMemory.demand_misses            0                       # Number of cache demand misses
system.ruby.l1_cntrl19.forwardFromCache.avg_buf_msgs     0.319997                       # Average number of messages in buffer
system.ruby.l1_cntrl19.forwardFromCache.avg_stall_time   975.000250                       # Average number of cycles messages are stalled in this MB
system.ruby.l1_cntrl19.mandatoryQueue.avg_buf_msgs     0.435006                       # Average number of messages in buffer
system.ruby.l1_cntrl19.mandatoryQueue.avg_stall_time   492.500075                       # Average number of cycles messages are stalled in this MB
system.ruby.l1_cntrl19.requestFromCache.avg_buf_msgs     0.239998                       # Average number of messages in buffer
system.ruby.l1_cntrl19.requestFromCache.avg_stall_time   885.001150                       # Average number of cycles messages are stalled in this MB
system.ruby.l1_cntrl19.responseFromCache.avg_buf_msgs     6.495085                       # Average number of messages in buffer
system.ruby.l1_cntrl19.responseFromCache.avg_stall_time 22240.267597                       # Average number of cycles messages are stalled in this MB
system.ruby.l1_cntrl2.cacheMemory.demand_accesses            0                       # Number of cache demand accesses
system.ruby.l1_cntrl2.cacheMemory.demand_hits            0                       # Number of cache demand hits
system.ruby.l1_cntrl2.cacheMemory.demand_misses            0                       # Number of cache demand misses
system.ruby.l1_cntrl2.forwardFromCache.avg_buf_msgs     0.550034                       # Average number of messages in buffer
system.ruby.l1_cntrl2.forwardFromCache.avg_stall_time   965.000350                       # Average number of cycles messages are stalled in this MB
system.ruby.l1_cntrl2.mandatoryQueue.avg_buf_msgs     0.465005                       # Average number of messages in buffer
system.ruby.l1_cntrl2.mandatoryQueue.avg_stall_time   497.500025                       # Average number of cycles messages are stalled in this MB
system.ruby.l1_cntrl2.requestFromCache.avg_buf_msgs     0.299997                       # Average number of messages in buffer
system.ruby.l1_cntrl2.requestFromCache.avg_stall_time   955.000450                       # Average number of cycles messages are stalled in this MB
system.ruby.l1_cntrl2.responseFromCache.avg_buf_msgs     5.085079                       # Average number of messages in buffer
system.ruby.l1_cntrl2.responseFromCache.avg_stall_time 15655.273447                       # Average number of cycles messages are stalled in this MB
system.ruby.l1_cntrl20.cacheMemory.demand_accesses            0                       # Number of cache demand accesses
system.ruby.l1_cntrl20.cacheMemory.demand_hits            0                       # Number of cache demand hits
system.ruby.l1_cntrl20.cacheMemory.demand_misses            0                       # Number of cache demand misses
system.ruby.l1_cntrl20.forwardFromCache.avg_buf_msgs     0.275007                       # Average number of messages in buffer
system.ruby.l1_cntrl20.forwardFromCache.avg_stall_time   985.000150                       # Average number of cycles messages are stalled in this MB
system.ruby.l1_cntrl20.mandatoryQueue.avg_buf_msgs     0.430006                       # Average number of messages in buffer
system.ruby.l1_cntrl20.mandatoryQueue.avg_stall_time   497.500025                       # Average number of cycles messages are stalled in this MB
system.ruby.l1_cntrl20.requestFromCache.avg_buf_msgs     0.355026                       # Average number of messages in buffer
system.ruby.l1_cntrl20.requestFromCache.avg_stall_time   975.000250                       # Average number of cycles messages are stalled in this MB
system.ruby.l1_cntrl20.responseFromCache.avg_buf_msgs     4.480085                       # Average number of messages in buffer
system.ruby.l1_cntrl20.responseFromCache.avg_stall_time  8207.677923                       # Average number of cycles messages are stalled in this MB
system.ruby.l1_cntrl21.cacheMemory.demand_accesses            0                       # Number of cache demand accesses
system.ruby.l1_cntrl21.cacheMemory.demand_hits            0                       # Number of cache demand hits
system.ruby.l1_cntrl21.cacheMemory.demand_misses            0                       # Number of cache demand misses
system.ruby.l1_cntrl21.forwardFromCache.avg_buf_msgs     0.930051                       # Average number of messages in buffer
system.ruby.l1_cntrl21.forwardFromCache.avg_stall_time   935.000650                       # Average number of cycles messages are stalled in this MB
system.ruby.l1_cntrl21.mandatoryQueue.avg_buf_msgs     0.435006                       # Average number of messages in buffer
system.ruby.l1_cntrl21.mandatoryQueue.avg_stall_time   492.500075                       # Average number of cycles messages are stalled in this MB
system.ruby.l1_cntrl21.requestFromCache.avg_buf_msgs     0.710043                       # Average number of messages in buffer
system.ruby.l1_cntrl21.requestFromCache.avg_stall_time  1395.021050                       # Average number of cycles messages are stalled in this MB
system.ruby.l1_cntrl21.responseFromCache.avg_buf_msgs     6.175098                       # Average number of messages in buffer
system.ruby.l1_cntrl21.responseFromCache.avg_stall_time 10930.085699                       # Average number of cycles messages are stalled in this MB
system.ruby.l1_cntrl22.cacheMemory.demand_accesses            0                       # Number of cache demand accesses
system.ruby.l1_cntrl22.cacheMemory.demand_hits            0                       # Number of cache demand hits
system.ruby.l1_cntrl22.cacheMemory.demand_misses            0                       # Number of cache demand misses
system.ruby.l1_cntrl22.forwardFromCache.avg_buf_msgs     0.475025                       # Average number of messages in buffer
[...]
system.ruby.network.netifs50.power_state.pwrStateResidencyTicks::UNDEFINED       100000                       # Cumulative time (in ticks) in various power states
system.ruby.network.netifs51.power_state.pwrStateResidencyTicks::UNDEFINED       100000                       # Cumulative time (in ticks) in various power states
system.ruby.network.netifs52.power_state.pwrStateResidencyTicks::UNDEFINED       100000                       # Cumulative time (in ticks) in various power states
system.ruby.network.netifs53.power_state.pwrStateResidencyTicks::UNDEFINED       100000                       # Cumulative time (in ticks) in various power states
system.ruby.network.netifs54.power_state.pwrStateResidencyTicks::UNDEFINED       100000                       # Cumulative time (in ticks) in various power states
system.ruby.network.netifs55.power_state.pwrStateResidencyTicks::UNDEFINED       100000                       # Cumulative time (in ticks) in various power states
system.ruby.network.netifs56.power_state.pwrStateResidencyTicks::UNDEFINED       100000                       # Cumulative time (in ticks) in various power states
system.ruby.network.netifs57.power_state.pwrStateResidencyTicks::UNDEFINED       100000                       # Cumulative time (in ticks) in various power states
system.ruby.network.netifs58.power_state.pwrStateResidencyTicks::UNDEFINED       100000                       # Cumulative time (in ticks) in various power states
system.ruby.network.netifs59.power_state.pwrStateResidencyTicks::UNDEFINED       100000                       # Cumulative time (in ticks) in various power states
system.ruby.network.netifs6.power_state.pwrStateResidencyTicks::UNDEFINED       100000                       # Cumulative time (in ticks) in various power states
system.ruby.network.netifs60.power_state.pwrStateResidencyTicks::UNDEFINED       100000                       # Cumulative time (in ticks) in various power states
system.ruby.network.netifs61.power_state.pwrStateResidencyTicks::UNDEFINED       100000                       # Cumulative time (in ticks) in various power states
system.ruby.network.netifs62.power_state.pwrStateResidencyTicks::UNDEFINED       100000                       # Cumulative time (in ticks) in various power states
system.ruby.network.netifs63.power_state.pwrStateResidencyTicks::UNDEFINED       100000                       # Cumulative time (in ticks) in various power states
system.ruby.network.netifs64.power_state.pwrStateResidencyTicks::UNDEFINED       100000                       # Cumulative time (in ticks) in various power states
system.ruby.network.netifs65.power_state.pwrStateResidencyTicks::UNDEFINED       100000                       # Cumulative time (in ticks) in various power states
system.ruby.network.netifs66.power_state.pwrStateResidencyTicks::UNDEFINED       100000                       # Cumulative time (in ticks) in various power states
system.ruby.network.netifs67.power_state.pwrStateResidencyTicks::UNDEFINED       100000                       # Cumulative time (in ticks) in various power states
system.ruby.network.netifs68.power_state.pwrStateResidencyTicks::UNDEFINED       100000                       # Cumulative time (in ticks) in various power states
system.ruby.network.netifs69.power_state.pwrStateResidencyTicks::UNDEFINED       100000                       # Cumulative time (in ticks) in various power states
system.ruby.network.netifs7.power_state.pwrStateResidencyTicks::UNDEFINED       100000                       # Cumulative time (in ticks) in various power states
system.ruby.network.netifs70.power_state.pwrStateResidencyTicks::UNDEFINED       100000                       # Cumulative time (in ticks) in various power states
system.ruby.network.netifs71.power_state.pwrStateResidencyTicks::UNDEFINED       100000                       # Cumulative time (in ticks) in various power states
system.ruby.network.netifs72.power_state.pwrStateResidencyTicks::UNDEFINED       100000                       # Cumulative time (in ticks) in various power states
system.ruby.network.netifs73.power_state.pwrStateResidencyTicks::UNDEFINED       100000                       # Cumulative time (in ticks) in various power states
system.ruby.network.netifs74.power_state.pwrStateResidencyTicks::UNDEFINED       100000                       # Cumulative time (in ticks) in various power states
system.ruby.network.netifs75.power_state.pwrStateResidencyTicks::UNDEFINED       100000                       # Cumulative time (in ticks) in various power states
system.ruby.network.netifs76.power_state.pwrStateResidencyTicks::UNDEFINED       100000                       # Cumulative time (in ticks) in various power states
system.ruby.network.netifs77.power_state.pwrStateResidencyTicks::UNDEFINED       100000                       # Cumulative time (in ticks) in various power states
system.ruby.network.netifs78.power_state.pwrStateResidencyTicks::UNDEFINED       100000                       # Cumulative time (in ticks) in various power states
system.ruby.network.netifs79.power_state.pwrStateResidencyTicks::UNDEFINED       100000                       # Cumulative time (in ticks) in various power states
system.ruby.network.netifs8.power_state.pwrStateResidencyTicks::UNDEFINED       100000                       # Cumulative time (in ticks) in various power states
system.ruby.network.netifs80.power_state.pwrStateResidencyTicks::UNDEFINED       100000                       # Cumulative time (in ticks) in various power states
system.ruby.network.netifs81.power_state.pwrStateResidencyTicks::UNDEFINED       100000                       # Cumulative time (in ticks) in various power states
system.ruby.network.netifs82.power_state.pwrStateResidencyTicks::UNDEFINED       100000                       # Cumulative time (in ticks) in various power states
system.ruby.network.netifs83.power_state.pwrStateResidencyTicks::UNDEFINED       100000                       # Cumulative time (in ticks) in various power states
system.ruby.network.netifs84.power_state.pwrStateResidencyTicks::UNDEFINED       100000                       # Cumulative time (in ticks) in various power states
system.ruby.network.netifs85.power_state.pwrStateResidencyTicks::UNDEFINED       100000                       # Cumulative time (in ticks) in various power states
system.ruby.network.netifs86.power_state.pwrStateResidencyTicks::UNDEFINED       100000                       # Cumulative time (in ticks) in various power states
system.ruby.network.netifs87.power_state.pwrStateResidencyTicks::UNDEFINED       100000                       # Cumulative time (in ticks) in various power states
system.ruby.network.netifs88.power_state.pwrStateResidencyTicks::UNDEFINED       100000                       # Cumulative time (in ticks) in various power states
system.ruby.network.netifs89.power_state.pwrStateResidencyTicks::UNDEFINED       100000                       # Cumulative time (in ticks) in various power states
system.ruby.network.netifs9.power_state.pwrStateResidencyTicks::UNDEFINED       100000                       # Cumulative time (in ticks) in various power states
system.ruby.network.netifs90.power_state.pwrStateResidencyTicks::UNDEFINED       100000                       # Cumulative time (in ticks) in various power states
system.ruby.network.netifs91.power_state.pwrStateResidencyTicks::UNDEFINED       100000                       # Cumulative time (in ticks) in various power states
system.ruby.network.netifs92.power_state.pwrStateResidencyTicks::UNDEFINED       100000                       # Cumulative time (in ticks) in various power states
system.ruby.network.netifs93.power_state.pwrStateResidencyTicks::UNDEFINED       100000                       # Cumulative time (in ticks) in various power states
system.ruby.network.netifs94.power_state.pwrStateResidencyTicks::UNDEFINED       100000                       # Cumulative time (in ticks) in various power states
system.ruby.network.netifs95.power_state.pwrStateResidencyTicks::UNDEFINED       100000                       # Cumulative time (in ticks) in various power states
system.ruby.network.netifs96.power_state.pwrStateResidencyTicks::UNDEFINED       100000                       # Cumulative time (in ticks) in various power states
system.ruby.network.netifs97.power_state.pwrStateResidencyTicks::UNDEFINED       100000                       # Cumulative time (in ticks) in various power states
system.ruby.network.netifs98.power_state.pwrStateResidencyTicks::UNDEFINED       100000                       # Cumulative time (in ticks) in various power states
system.ruby.network.netifs99.power_state.pwrStateResidencyTicks::UNDEFINED       100000                       # Cumulative time (in ticks) in various power states
system.ruby.network.power_state.pwrStateResidencyTicks::UNDEFINED       100000                       # Cumulative time (in ticks) in various power states
system.ruby.network.routers0.power_state.pwrStateResidencyTicks::UNDEFINED       100000                       # Cumulative time (in ticks) in various power states
system.ruby.network.routers1.power_state.pwrStateResidencyTicks::UNDEFINED       100000                       # Cumulative time (in ticks) in various power states
system.ruby.network.routers10.power_state.pwrStateResidencyTicks::UNDEFINED       100000                       # Cumulative time (in ticks) in various power states
system.ruby.network.routers11.power_state.pwrStateResidencyTicks::UNDEFINED       100000                       # Cumulative time (in ticks) in various power states
system.ruby.network.routers12.power_state.pwrStateResidencyTicks::UNDEFINED       100000                       # Cumulative time (in ticks) in various power states
system.ruby.network.routers13.power_state.pwrStateResidencyTicks::UNDEFINED       100000                       # Cumulative time (in ticks) in various power states
system.ruby.network.routers14.power_state.pwrStateResidencyTicks::UNDEFINED       100000                       # Cumulative time (in ticks) in various power states
system.ruby.network.routers15.power_state.pwrStateResidencyTicks::UNDEFINED       100000                       # Cumulative time (in ticks) in various power states
system.ruby.network.routers16.power_state.pwrStateResidencyTicks::UNDEFINED       100000                       # Cumulative time (in ticks) in various power states
system.ruby.network.routers17.power_state.pwrStateResidencyTicks::UNDEFINED       100000                       # Cumulative time (in ticks) in various power states
system.ruby.network.routers18.power_state.pwrStateResidencyTicks::UNDEFINED       100000                       # Cumulative time (in ticks) in various power states
system.ruby.network.routers19.power_state.pwrStateResidencyTicks::UNDEFINED       100000                       # Cumulative time (in ticks) in various power states
system.ruby.network.routers2.power_state.pwrStateResidencyTicks::UNDEFINED       100000                       # Cumulative time (in ticks) in various power states
system.ruby.network.routers20.power_state.pwrStateResidencyTicks::UNDEFINED       100000                       # Cumulative time (in ticks) in various power states
system.ruby.network.routers21.power_state.pwrStateResidencyTicks::UNDEFINED       100000                       # Cumulative time (in ticks) in various power states
system.ruby.network.routers22.power_state.pwrStateResidencyTicks::UNDEFINED       100000                       # Cumulative time (in ticks) in various power states
system.ruby.network.routers23.power_state.pwrStateResidencyTicks::UNDEFINED       100000                       # Cumulative time (in ticks) in various power states
system.ruby.network.routers24.power_state.pwrStateResidencyTicks::UNDEFINED       100000                       # Cumulative time (in ticks) in various power states
system.ruby.network.routers25.power_state.pwrStateResidencyTicks::UNDEFINED       100000                       # Cumulative time (in ticks) in various power states
system.ruby.network.routers26.power_state.pwrStateResidencyTicks::UNDEFINED       100000                       # Cumulative time (in ticks) in various power states
system.ruby.network.routers27.power_state.pwrStateResidencyTicks::UNDEFINED       100000                       # Cumulative time (in ticks) in various power states
system.ruby.network.routers28.power_state.pwrStateResidencyTicks::UNDEFINED       100000                       # Cumulative time (in ticks) in various power states
system.ruby.network.routers29.power_state.pwrStateResidencyTicks::UNDEFINED       100000                       # Cumulative time (in ticks) in various power states
system.ruby.network.routers3.power_state.pwrStateResidencyTicks::UNDEFINED       100000                       # Cumulative time (in ticks) in various power states
system.ruby.network.routers30.power_state.pwrStateResidencyTicks::UNDEFINED       100000                       # Cumulative time (in ticks) in various power states
system.ruby.network.routers31.power_state.pwrStateResidencyTicks::UNDEFINED       100000                       # Cumulative time (in ticks) in various power states
system.ruby.network.routers32.power_state.pwrStateResidencyTicks::UNDEFINED       100000                       # Cumulative time (in ticks) in various power states
system.ruby.network.routers33.power_state.pwrStateResidencyTicks::UNDEFINED       100000                       # Cumulative time (in ticks) in various power states
system.ruby.network.routers34.power_state.pwrStateResidencyTicks::UNDEFINED       100000                       # Cumulative time (in ticks) in various power states
system.ruby.network.routers35.power_state.pwrStateResidencyTicks::UNDEFINED       100000                       # Cumulative time (in ticks) in various power states
system.ruby.network.routers36.power_state.pwrStateResidencyTicks::UNDEFINED       100000                       # Cumulative time (in ticks) in various power states
system.ruby.network.routers37.power_state.pwrStateResidencyTicks::UNDEFINED       100000                       # Cumulative time (in ticks) in various power states
system.ruby.network.routers38.power_state.pwrStateResidencyTicks::UNDEFINED       100000                       # Cumulative time (in ticks) in various power states
system.ruby.network.routers39.power_state.pwrStateResidencyTicks::UNDEFINED       100000                       # Cumulative time (in ticks) in various power states
system.ruby.network.routers4.power_state.pwrStateResidencyTicks::UNDEFINED       100000                       # Cumulative time (in ticks) in various power states
system.ruby.network.routers40.power_state.pwrStateResidencyTicks::UNDEFINED       100000                       # Cumulative time (in ticks) in various power states
system.ruby.network.routers41.power_state.pwrStateResidencyTicks::UNDEFINED       100000                       # Cumulative time (in ticks) in various power states
system.ruby.network.routers42.power_state.pwrStateResidencyTicks::UNDEFINED       100000                       # Cumulative time (in ticks) in various power states
system.ruby.network.routers43.power_state.pwrStateResidencyTicks::UNDEFINED       100000                       # Cumulative time (in ticks) in various power states
system.ruby.network.routers44.power_state.pwrStateResidencyTicks::UNDEFINED       100000                       # Cumulative time (in ticks) in various power states
system.ruby.network.routers45.power_state.pwrStateResidencyTicks::UNDEFINED       100000                       # Cumulative time (in ticks) in various power states
system.ruby.network.routers46.power_state.pwrStateResidencyTicks::UNDEFINED       100000                       # Cumulative time (in ticks) in various power states
system.ruby.network.routers47.power_state.pwrStateResidencyTicks::UNDEFINED       100000                       # Cumulative time (in ticks) in various power states
system.ruby.network.routers48.power_state.pwrStateResidencyTicks::UNDEFINED       100000                       # Cumulative time (in ticks) in various power states
system.ruby.network.routers49.power_state.pwrStateResidencyTicks::UNDEFINED       100000                       # Cumulative time (in ticks) in various power states
system.ruby.network.routers5.power_state.pwrStateResidencyTicks::UNDEFINED       100000                       # Cumulative time (in ticks) in various power states
system.ruby.network.routers50.power_state.pwrStateResidencyTicks::UNDEFINED       100000                       # Cumulative time (in ticks) in various power states
system.ruby.network.routers51.power_state.pwrStateResidencyTicks::UNDEFINED       100000                       # Cumulative time (in ticks) in various power states
system.ruby.network.routers52.power_state.pwrStateResidencyTicks::UNDEFINED       100000                       # Cumulative time (in ticks) in various power states
system.ruby.network.routers53.power_state.pwrStateResidencyTicks::UNDEFINED       100000                       # Cumulative time (in ticks) in various power states
system.ruby.network.routers54.power_state.pwrStateResidencyTicks::UNDEFINED       100000                       # Cumulative time (in ticks) in various power states
system.ruby.network.routers55.power_state.pwrStateResidencyTicks::UNDEFINED       100000                       # Cumulative time (in ticks) in various power states
system.ruby.network.routers56.power_state.pwrStateResidencyTicks::UNDEFINED       100000                       # Cumulative time (in ticks) in various power states
system.ruby.network.routers57.power_state.pwrStateResidencyTicks::UNDEFINED       100000                       # Cumulative time (in ticks) in various power states
system.ruby.network.routers58.power_state.pwrStateResidencyTicks::UNDEFINED       100000                       # Cumulative time (in ticks) in various power states
system.ruby.network.routers59.power_state.pwrStateResidencyTicks::UNDEFINED       100000                       # Cumulative time (in ticks) in various power states
system.ruby.network.routers6.power_state.pwrStateResidencyTicks::UNDEFINED       100000                       # Cumulative time (in ticks) in various power states
system.ruby.network.routers60.power_state.pwrStateResidencyTicks::UNDEFINED       100000                       # Cumulative time (in ticks) in various power states
system.ruby.network.routers61.power_state.pwrStateResidencyTicks::UNDEFINED       100000                       # Cumulative time (in ticks) in various power states
system.ruby.network.routers62.power_state.pwrStateResidencyTicks::UNDEFINED       100000                       # Cumulative time (in ticks) in various power states
system.ruby.network.routers63.power_state.pwrStateResidencyTicks::UNDEFINED       100000                       # Cumulative time (in ticks) in various power states
system.ruby.network.routers7.power_state.pwrStateResidencyTicks::UNDEFINED       100000                       # Cumulative time (in ticks) in various power states
system.ruby.network.routers8.power_state.pwrStateResidencyTicks::UNDEFINED       100000                       # Cumulative time (in ticks) in various power states
system.ruby.network.routers9.power_state.pwrStateResidencyTicks::UNDEFINED       100000                       # Cumulative time (in ticks) in various power states
system.ruby.power_state.pwrStateResidencyTicks::UNDEFINED       100000                       # Cumulative time (in ticks) in various power states
system.sys_port_proxy.power_state.pwrStateResidencyTicks::UNDEFINED       100000                       # Cumulative time (in ticks) in various power states
system.voltage_domain.voltage                       1                       # Voltage in Volts

---------- End Simulation Statistics   ----------
