
---------- Begin Simulation Statistics ----------
final_tick                                     100000                       # Number of ticks from beginning of simulation (restored from checkpoints and never reset)
host_mem_usage                                 827072                       # Number of bytes of host memory used
host_seconds                                     1.28                       # Real time elapsed on the host
host_tick_rate                                  78057                       # Simulator tick rate (ticks/s)
sim_freq                                 1000000000000                       # Frequency of simulated ticks
sim_seconds                                  0.000000                       # Number of seconds simulated
sim_ticks                                      100000                       # Number of ticks simulated
system.ruby.Directory_Controller.I.Receive_Request |           0      0.00%      0.00% |           0      0.00%      0.00% |           0      0.00%      0.00% |           0      0.00%      0.00% |           0      0.00%      0.00% |           0      0.00%      0.00% |           0      0.00%      0.00% |           0      0.00%      0.00% |           1    100.00%    100.00% |           0      0.00%    100.00% |           0      0.00%    100.00% |           0      0.00%    100.00% |           0      0.00%    100.00% |           0      0.00%    100.00% |           0      0.00%    100.00% |           0      0.00%    100.00%
system.ruby.Directory_Controller.I.Receive_Request::total            1                      
system.ruby.Directory_Controller.Receive_Request |           0      0.00%      0.00% |           0      0.00%      0.00% |           0      0.00%      0.00% |           0      0.00%      0.00% |           0      0.00%      0.00% |           0      0.00%      0.00% |           0      0.00%      0.00% |           0      0.00%      0.00% |           1    100.00%    100.00% |           0      0.00%    100.00% |           0      0.00%    100.00% |           0      0.00%    100.00% |           0      0.00%    100.00% |           0      0.00%    100.00% |           0      0.00%    100.00% |           0      0.00%    100.00%
system.ruby.Directory_Controller.Receive_Request::total            1                      
system.ruby.IFETCH.hit_latency_hist_seqr::bucket_size            1                      
system.ruby.IFETCH.hit_latency_hist_seqr::max_bucket            9                      
system.ruby.IFETCH.hit_latency_hist_seqr::samples            4                      
system.ruby.IFETCH.hit_latency_hist_seqr |           4    100.00%    100.00% |           0      0.00%    100.00% |           0      0.00%    100.00% |           0      0.00%    100.00% |           0      0.00%    100.00% |           0      0.00%    100.00% |           0      0.00%    100.00% |           0      0.00%    100.00% |           0      0.00%    100.00% |           0      0.00%    100.00%
system.ruby.IFETCH.hit_latency_hist_seqr::total            4                      
system.ruby.IFETCH.latency_hist_seqr::bucket_size            1                      
system.ruby.IFETCH.latency_hist_seqr::max_bucket            9                      
system.ruby.IFETCH.latency_hist_seqr::samples            4                      
system.ruby.IFETCH.latency_hist_seqr     |           4    100.00%    100.00% |           0      0.00%    100.00% |           0      0.00%    100.00% |           0      0.00%    100.00% |           0      0.00%    100.00% |           0      0.00%    100.00% |           0      0.00%    100.00% |           0      0.00%    100.00% |           0      0.00%    100.00% |           0      0.00%    100.00%
system.ruby.IFETCH.latency_hist_seqr::total            4                      
system.ruby.L1Cache_Controller.Forward   |           1     25.00%     25.00% |           1     25.00%     50.00% |           0      0.00%     50.00% |           0      0.00%     50.00% |           1     25.00%     75.00% |           0      0.00%     75.00% |           0      0.00%     75.00% |           0      0.00%     75.00% |           0      0.00%     75.00% |           0      0.00%     75.00% |           1     25.00%    100.00% |           0      0.00%    100.00% |           0      0.00%    100.00% |           0      0.00%    100.00% |           0      0.00%    100.00% |           0      0.00%    100.00%
system.ruby.L1Cache_Controller.Forward::total            4                      
system.ruby.L1Cache_Controller.I.Forward |           1     25.00%     25.00% |           1     25.00%     50.00% |           0      0.00%     50.00% |           0      0.00%     50.00% |           1     25.00%     75.00% |           0      0.00%     75.00% |           0      0.00%     75.00% |           0      0.00%     75.00% |           0      0.00%     75.00% |           0      0.00%     75.00% |           1     25.00%    100.00% |           0      0.00%    100.00% |           0      0.00%    100.00% |           0      0.00%    100.00% |           0      0.00%    100.00% |           0      0.00%    100.00%
system.ruby.L1Cache_Controller.I.Forward::total            4                      
system.ruby.L1Cache_Controller.I.Request |           0      0.00%      0.00% |           0      0.00%      0.00% |           1     20.00%     20.00% |           0      0.00%     20.00% |           0      0.00%     20.00% |           0      0.00%     20.00% |           1     20.00%     40.00% |           0      0.00%     40.00% |           2     40.00%     80.00% |           0      0.00%     80.00% |           1     20.00%    100.00% |           0      0.00%    100.00% |           0      0.00%    100.00% |           0      0.00%    100.00% |           0      0.00%    100.00% |           0      0.00%    100.00%
system.ruby.L1Cache_Controller.I.Request::total            5                      
system.ruby.L1Cache_Controller.I.Response |           0      0.00%      0.00% |           1     25.00%     25.00% |           0      0.00%     25.00% |           1     25.00%     50.00% |           0      0.00%     50.00% |           0      0.00%     50.00% |           0      0.00%     50.00% |           0      0.00%     50.00% |           0      0.00%     50.00% |           0      0.00%     50.00% |           0      0.00%     50.00% |           0      0.00%     50.00% |           0      0.00%     50.00% |           0      0.00%     50.00% |           2     50.00%    100.00% |           0      0.00%    100.00%
system.ruby.L1Cache_Controller.I.Response::total            4                      
system.ruby.L1Cache_Controller.Request   |           0      0.00%      0.00% |           0      0.00%      0.00% |           1     20.00%     20.00% |           0      0.00%     20.00% |           0      0.00%     20.00% |           0      0.00%     20.00% |           1     20.00%     40.00% |           0      0.00%     40.00% |           2     40.00%     80.00% |           0      0.00%     80.00% |           1     20.00%    100.00% |           0      0.00%    100.00% |           0      0.00%    100.00% |           0      0.00%    100.00% |           0      0.00%    100.00% |           0      0.00%    100.00%
system.ruby.L1Cache_Controller.Request::total            5                      
system.ruby.L1Cache_Controller.Response  |           0      0.00%      0.00% |           1     25.00%     25.00% |           0      0.00%     25.00% |           1     25.00%     50.00% |           0      0.00%     50.00% |           0      0.00%     50.00% |           0      0.00%     50.00% |           0      0.00%     50.00% |           0      0.00%     50.00% |           0      0.00%     50.00% |           0      0.00%     50.00% |           0      0.00%     50.00% |           0      0.00%     50.00% |           0      0.00%     50.00% |           2     50.00%    100.00% |           0      0.00%    100.00%
system.ruby.L1Cache_Controller.Response::total            4                      
system.ruby.LD.hit_latency_hist_seqr::bucket_size            1                      
system.ruby.LD.hit_latency_hist_seqr::max_bucket            9                      
system.ruby.LD.hit_latency_hist_seqr::samples            5                      
system.ruby.LD.hit_latency_hist_seqr     |           5    100.00%    100.00% |           0      0.00%    100.00% |           0      0.00%    100.00% |           0      0.00%    100.00% |           0      0.00%    100.00% |           0      0.00%    100.00% |           0      0.00%    100.00% |           0      0.00%    100.00% |           0      0.00%    100.00% |           0      0.00%    100.00%
system.ruby.LD.hit_latency_hist_seqr::total            5                      
system.ruby.LD.latency_hist_seqr::bucket_size            1                      
system.ruby.LD.latency_hist_seqr::max_bucket            9                      
system.ruby.LD.latency_hist_seqr::samples            5                      
system.ruby.LD.latency_hist_seqr         |           5    100.00%    100.00% |           0      0.00%    100.00% |           0      0.00%    100.00% |           0      0.00%    100.00% |           0      0.00%    100.00% |           0      0.00%    100.00% |           0      0.00%    100.00% |           0      0.00%    100.00% |           0      0.00%    100.00% |           0      0.00%    100.00%
system.ruby.LD.latency_hist_seqr::total             5                      
system.ruby.ST.hit_latency_hist_seqr::bucket_size            1                      
system.ruby.ST.hit_latency_hist_seqr::max_bucket            9                      
system.ruby.ST.hit_latency_hist_seqr::samples            4                      
system.ruby.ST.hit_latency_hist_seqr     |           4    100.00%    100.00% |           0      0.00%    100.00% |           0      0.00%    100.00% |           0      0.00%    100.00% |           0      0.00%    100.00% |           0      0.00%    100.00% |           0      0.00%    100.00% |           0      0.00%    100.00% |           0      0.00%    100.00% |           0      0.00%    100.00%
system.ruby.ST.hit_latency_hist_seqr::total            4                      
system.ruby.ST.latency_hist_seqr::bucket_size            1                      
system.ruby.ST.latency_hist_seqr::max_bucket            9                      
system.ruby.ST.latency_hist_seqr::samples            4                      
system.ruby.ST.latency_hist_seqr         |           4    100.00%    100.00% |           0      0.00%    100.00% |           0      0.00%    100.00% |           0      0.00%    100.00% |           0      0.00%    100.00% |           0      0.00%    100.00% |           0      0.00%    100.00% |           0      0.00%    100.00% |           0      0.00%    100.00% |           0      0.00%    100.00%
system.ruby.ST.latency_hist_seqr::total             4                      
system.ruby.dir_cntrl8.requestToDir.avg_buf_msgs     0.005000                       # Average number of messages in buffer
system.ruby.dir_cntrl8.requestToDir.avg_stall_time  1225.022750                       # Average number of cycles messages are stalled in this MB
system.ruby.hit_latency_hist_seqr::bucket_size            1                      
system.ruby.hit_latency_hist_seqr::max_bucket            9                      
system.ruby.hit_latency_hist_seqr::samples           13                      
system.ruby.hit_latency_hist_seqr        |          13    100.00%    100.00% |           0      0.00%    100.00% |           0      0.00%    100.00% |           0      0.00%    100.00% |           0      0.00%    100.00% |           0      0.00%    100.00% |           0      0.00%    100.00% |           0      0.00%    100.00% |           0      0.00%    100.00% |           0      0.00%    100.00%
system.ruby.hit_latency_hist_seqr::total           13                      
system.ruby.l1_cntrl0.cacheMemory.demand_accesses            0                       # Number of cache demand accesses
system.ruby.l1_cntrl0.cacheMemory.demand_hits            0                       # Number of cache demand hits
system.ruby.l1_cntrl0.cacheMemory.demand_misses            0                       # Number of cache demand misses
system.ruby.l1_cntrl0.forwardFromCache.avg_buf_msgs     0.010000                       # Average number of messages in buffer
system.ruby.l1_cntrl0.forwardFromCache.avg_stall_time    45.009550                       # Average number of cycles messages are stalled in this MB
system.ruby.l1_cntrl0.mandatoryQueue.avg_buf_msgs     0.005000                       # Average number of messages in buffer
system.ruby.l1_cntrl0.mandatoryQueue.avg_stall_time    27.504725                       # Average number of cycles messages are stalled in this MB
system.ruby.l1_cntrl1.cacheMemory.demand_accesses            0                       # Number of cache demand accesses
system.ruby.l1_cntrl1.cacheMemory.demand_hits            0                       # Number of cache demand hits
system.ruby.l1_cntrl1.cacheMemory.demand_misses            0                       # Number of cache demand misses
system.ruby.l1_cntrl1.forwardFromCache.avg_buf_msgs     0.010000                       # Average number of messages in buffer
system.ruby.l1_cntrl1.forwardFromCache.avg_stall_time   825.001750                       # Average number of cycles messages are stalled in this MB
system.ruby.l1_cntrl1.mandatoryQueue.avg_buf_msgs     0.010000                       # Average number of messages in buffer
system.ruby.l1_cntrl1.mandatoryQueue.avg_stall_time   417.500825                       # Average number of cycles messages are stalled in this MB
system.ruby.l1_cntrl1.responseFromCache.avg_buf_msgs     0.010000                       # Average number of messages in buffer
system.ruby.l1_cntrl1.responseFromCache.avg_stall_time   245.007550                       # Average number of cycles messages are stalled in this MB
system.ruby.l1_cntrl10.cacheMemory.demand_accesses            0                       # Number of cache demand accesses
system.ruby.l1_cntrl10.cacheMemory.demand_hits            0                       # Number of cache demand hits
system.ruby.l1_cntrl10.cacheMemory.demand_misses            0                       # Number of cache demand misses
system.ruby.l1_cntrl10.forwardFromCache.avg_buf_msgs     0.010000                       # Average number of messages in buffer
system.ruby.l1_cntrl10.forwardFromCache.avg_stall_time   395.006050                       # Average number of cycles messages are stalled in this MB
system.ruby.l1_cntrl10.mandatoryQueue.avg_buf_msgs     0.010000                       # Average number of messages in buffer
system.ruby.l1_cntrl10.mandatoryQueue.avg_stall_time   442.500575                       # Average number of cycles messages are stalled in this MB
system.ruby.l1_cntrl10.requestFromCache.avg_buf_msgs     0.010000                       # Average number of messages in buffer
system.ruby.l1_cntrl10.requestFromCache.avg_stall_time   875.001250                       # Average number of cycles messages are stalled in this MB
system.ruby.l1_cntrl11.cacheMemory.demand_accesses            0                       # Number of cache demand accesses
system.ruby.l1_cntrl11.cacheMemory.demand_hits            0                       # Number of cache demand hits
system.ruby.l1_cntrl11.cacheMemory.demand_misses            0                       # Number of cache demand misses
system.ruby.l1_cntrl12.cacheMemory.demand_accesses            0                       # Number of cache demand accesses
system.ruby.l1_cntrl12.cacheMemory.demand_hits            0                       # Number of cache demand hits
system.ruby.l1_cntrl12.cacheMemory.demand_misses            0                       # Number of cache demand misses
system.ruby.l1_cntrl13.cacheMemory.demand_accesses            0                       # Number of cache demand accesses
system.ruby.l1_cntrl13.cacheMemory.demand_hits            0                       # Number of cache demand hits
system.ruby.l1_cntrl13.cacheMemory.demand_misses            0                       # Number of cache demand misses
system.ruby.l1_cntrl14.cacheMemory.demand_accesses            0                       # Number of cache demand accesses
system.ruby.l1_cntrl14.cacheMemory.demand_hits            0                       # Number of cache demand hits
system.ruby.l1_cntrl14.cacheMemory.demand_misses            0                       # Number of cache demand misses
system.ruby.l1_cntrl14.mandatoryQueue.avg_buf_msgs     0.010000                       # Average number of messages in buffer
system.ruby.l1_cntrl14.mandatoryQueue.avg_stall_time   412.500875                       # Average number of cycles messages are stalled in this MB
system.ruby.l1_cntrl14.responseFromCache.avg_buf_msgs     0.020000                       # Average number of messages in buffer
system.ruby.l1_cntrl14.responseFromCache.avg_stall_time   815.001850                       # Average number of cycles messages are stalled in this MB
system.ruby.l1_cntrl15.cacheMemory.demand_accesses            0                       # Number of cache demand accesses
system.ruby.l1_cntrl15.cacheMemory.demand_hits            0                       # Number of cache demand hits
system.ruby.l1_cntrl15.cacheMemory.demand_misses            0                       # Number of cache demand misses
system.ruby.l1_cntrl2.cacheMemory.demand_accesses            0                       # Number of cache demand accesses
system.ruby.l1_cntrl2.cacheMemory.demand_hits            0                       # Number of cache demand hits
system.ruby.l1_cntrl2.cacheMemory.demand_misses            0                       # Number of cache demand misses
system.ruby.l1_cntrl2.mandatoryQueue.avg_buf_msgs     0.005000                       # Average number of messages in buffer
system.ruby.l1_cntrl2.mandatoryQueue.avg_stall_time    72.504275                       # Average number of cycles messages are stalled in this MB
system.ruby.l1_cntrl2.requestFromCache.avg_buf_msgs     0.010000                       # Average number of messages in buffer
system.ruby.l1_cntrl2.requestFromCache.avg_stall_time   135.008650                       # Average number of cycles messages are stalled in this MB
system.ruby.l1_cntrl3.cacheMemory.demand_accesses            0                       # Number of cache demand accesses
system.ruby.l1_cntrl3.cacheMemory.demand_hits            0                       # Number of cache demand hits
system.ruby.l1_cntrl3.cacheMemory.demand_misses            0                       # Number of cache demand misses
system.ruby.l1_cntrl3.mandatoryQueue.avg_buf_msgs     0.005000                       # Average number of messages in buffer
system.ruby.l1_cntrl3.mandatoryQueue.avg_stall_time   307.501925                       # Average number of cycles messages are stalled in this MB
system.ruby.l1_cntrl3.responseFromCache.avg_buf_msgs     0.010000                       # Average number of messages in buffer
system.ruby.l1_cntrl3.responseFromCache.avg_stall_time   605.003950                       # Average number of cycles messages are stalled in this MB
system.ruby.l1_cntrl4.cacheMemory.demand_accesses            0                       # Number of cache demand accesses
system.ruby.l1_cntrl4.cacheMemory.demand_hits            0                       # Number of cache demand hits
system.ruby.l1_cntrl4.cacheMemory.demand_misses            0                       # Number of cache demand misses
system.ruby.l1_cntrl4.forwardFromCache.avg_buf_msgs     0.010000                       # Average number of messages in buffer
system.ruby.l1_cntrl4.forwardFromCache.avg_stall_time   755.002450                       # Average number of cycles messages are stalled in this MB
system.ruby.l1_cntrl4.mandatoryQueue.avg_buf_msgs     0.005000                       # Average number of messages in buffer
system.ruby.l1_cntrl4.mandatoryQueue.avg_stall_time   382.501175                       # Average number of cycles messages are stalled in this MB
system.ruby.l1_cntrl5.cacheMemory.demand_accesses            0                       # Number of cache demand accesses
system.ruby.l1_cntrl5.cacheMemory.demand_hits            0                       # Number of cache demand hits
system.ruby.l1_cntrl5.cacheMemory.demand_misses            0                       # Number of cache demand misses
system.ruby.l1_cntrl6.cacheMemory.demand_accesses            0                       # Number of cache demand accesses
system.ruby.l1_cntrl6.cacheMemory.demand_hits            0                       # Number of cache demand hits
system.ruby.l1_cntrl6.cacheMemory.demand_misses            0                       # Number of cache demand misses
system.ruby.l1_cntrl6.mandatoryQueue.avg_buf_msgs     0.005000                       # Average number of messages in buffer
system.ruby.l1_cntrl6.mandatoryQueue.avg_stall_time     2.504975                       # Average number of cycles messages are stalled in this MB
system.ruby.l1_cntrl6.requestFromCache.avg_buf_msgs     0.005010                       # Average number of messages in buffer
system.ruby.l1_cntrl7.cacheMemory.demand_accesses            0                       # Number of cache demand accesses
system.ruby.l1_cntrl7.cacheMemory.demand_hits            0                       # Number of cache demand hits
system.ruby.l1_cntrl7.cacheMemory.demand_misses            0                       # Number of cache demand misses
system.ruby.l1_cntrl8.cacheMemory.demand_accesses            0                       # Number of cache demand accesses
system.ruby.l1_cntrl8.cacheMemory.demand_hits            0                       # Number of cache demand hits
system.ruby.l1_cntrl8.cacheMemory.demand_misses            0                       # Number of cache demand misses
system.ruby.l1_cntrl8.mandatoryQueue.avg_buf_msgs     0.010000                       # Average number of messages in buffer
system.ruby.l1_cntrl8.mandatoryQueue.avg_stall_time   337.501625                       # Average number of cycles messages are stalled in this MB
system.ruby.l1_cntrl8.requestFromCache.avg_buf_msgs     0.020000                       # Average number of messages in buffer
system.ruby.l1_cntrl8.requestFromCache.avg_stall_time   665.003350                       # Average number of cycles messages are stalled in this MB
system.ruby.l1_cntrl9.cacheMemory.demand_accesses            0                       # Number of cache demand accesses
system.ruby.l1_cntrl9.cacheMemory.demand_hits            0                       # Number of cache demand hits
system.ruby.l1_cntrl9.cacheMemory.demand_misses            0                       # Number of cache demand misses
system.ruby.latency_hist_seqr::bucket_size            1                      
system.ruby.latency_hist_seqr::max_bucket            9                      
system.ruby.latency_hist_seqr::samples             13                      
system.ruby.latency_hist_seqr            |          13    100.00%    100.00% |           0      0.00%    100.00% |           0      0.00%    100.00% |           0      0.00%    100.00% |           0      0.00%    100.00% |           0      0.00%    100.00% |           0      0.00%    100.00% |           0      0.00%    100.00% |           0      0.00%    100.00% |           0      0.00%    100.00%
system.ruby.latency_hist_seqr::total               13                      
system.ruby.network.average_flit_latency         2500                      
system.ruby.network.average_flit_network_latency         1500                      
system.ruby.network.average_flit_queueing_latency         1000                      
system.ruby.network.average_flit_vnet_latency |        1500                       |         nan                       |         nan                      
system.ruby.network.average_flit_vqueue_latency |        1000                       |         nan                       |         nan                      
system.ruby.network.average_hops                    0                      
system.ruby.network.average_packet_latency         2500                      
system.ruby.network.average_packet_network_latency         1500                      
system.ruby.network.average_packet_queueing_latency         1000                      
system.ruby.network.average_packet_vnet_latency |        1500                       |         nan                       |         nan                      
system.ruby.network.average_packet_vqueue_latency |        1000                       |         nan                       |         nan                      
system.ruby.network.avg_link_utilization     5.630000                      
system.ruby.network.avg_vc_load          |    0.820000     14.56%     14.56% |    0.010000      0.18%     14.74% |           0      0.00%     14.74% |           0      0.00%     14.74% |           0      0.00%     14.74% |           0      0.00%     14.74% |           0      0.00%     14.74% |           0      0.00%     14.74% |    1.005000     17.85%     32.59% |    0.005000      0.09%     32.68% |           0      0.00%     32.68% |           0      0.00%     32.68% |           0      0.00%     32.68% |           0      0.00%     32.68% |           0      0.00%     32.68% |           0      0.00%     32.68% |    1.405000     24.96%     57.64% |    1.200000     21.31%     78.95% |    1.095000     19.45%     98.40% |    0.065000      1.15%     99.56% |    0.025000      0.44%    100.00% |           0      0.00%    100.00% |           0      0.00%    100.00% |           0      0.00%    100.00%
system.ruby.network.avg_vc_load::total       5.630000                      
system.ruby.network.ext_in_link_utilization           28                      
system.ruby.network.ext_out_link_utilization            1                      
system.ruby.network.flit_network_latency |        1500                       |           0                       |           0                      
system.ruby.network.flit_queueing_latency |        1000                       |           0                       |           0                      
system.ruby.network.flits_injected       |           4     14.29%     14.29% |           4     14.29%     28.57% |          20     71.43%    100.00%
system.ruby.network.flits_injected::total           28                      
system.ruby.network.flits_received       |           1    100.00%    100.00% |           0      0.00%    100.00% |           0      0.00%    100.00%
system.ruby.network.flits_received::total            1                      
system.ruby.network.int_link_utilization         1097                      
system.ruby.network.packet_network_latency |        1500                       |           0                       |           0                      
system.ruby.network.packet_queueing_latency |        1000                       |           0                       |           0                      
system.ruby.network.packets_injected     |           4     33.33%     33.33% |           4     33.33%     66.67% |           4     33.33%    100.00%
system.ruby.network.packets_injected::total           12                      
system.ruby.network.packets_received     |           1    100.00%    100.00% |           0      0.00%    100.00% |           0      0.00%    100.00%
system.ruby.network.packets_received::total            1                      
system.ruby.network.routers00.buffer_reads           46                      
system.ruby.network.routers00.buffer_writes           46                      
system.ruby.network.routers00.crossbar_activity           46                      
system.ruby.network.routers00.sw_input_arbiter_activity           47                      
system.ruby.network.routers00.sw_output_arbiter_activity           46                      
system.ruby.network.routers01.buffer_reads           50                      
system.ruby.network.routers01.buffer_writes           50                      
system.ruby.network.routers01.crossbar_activity           49                      
system.ruby.network.routers01.sw_input_arbiter_activity           50                      
system.ruby.network.routers01.sw_output_arbiter_activity           49                      
system.ruby.network.routers02.buffer_reads            1                      
system.ruby.network.routers02.buffer_writes            1                      
system.ruby.network.routers02.crossbar_activity            1                      
system.ruby.network.routers02.sw_input_arbiter_activity            1                      
system.ruby.network.routers02.sw_output_arbiter_activity            1                      
system.ruby.network.routers03.buffer_reads          121                      
system.ruby.network.routers03.buffer_writes          121                      
system.ruby.network.routers03.crossbar_activity          120                      
system.ruby.network.routers03.sw_input_arbiter_activity          121                      
system.ruby.network.routers03.sw_output_arbiter_activity          120                      
system.ruby.network.routers04.buffer_reads           78                      
system.ruby.network.routers04.buffer_writes           78                      
system.ruby.network.routers04.crossbar_activity           78                      
system.ruby.network.routers04.sw_input_arbiter_activity           78                      
system.ruby.network.routers04.sw_output_arbiter_activity           78                      
system.ruby.network.routers05.buffer_reads           48                      
system.ruby.network.routers05.buffer_writes           48                      
system.ruby.network.routers05.crossbar_activity           48                      
system.ruby.network.routers05.sw_input_arbiter_activity           49                      
system.ruby.network.routers05.sw_output_arbiter_activity           48                      
system.ruby.network.routers06.buffer_reads          158                      
system.ruby.network.routers06.buffer_writes          158                      
system.ruby.network.routers06.crossbar_activity          158                      
system.ruby.network.routers06.sw_input_arbiter_activity          159                      
system.ruby.network.routers06.sw_output_arbiter_activity          158                      
system.ruby.network.routers07.buffer_reads          118                      
system.ruby.network.routers07.buffer_writes          118                      
system.ruby.network.routers07.crossbar_activity          118                      
system.ruby.network.routers07.sw_input_arbiter_activity          118                      
system.ruby.network.routers07.sw_output_arbiter_activity          118                      
system.ruby.network.routers08.buffer_reads           34                      
system.ruby.network.routers08.buffer_writes           34                      
system.ruby.network.routers08.crossbar_activity           34                      
system.ruby.network.routers08.sw_input_arbiter_activity           34                      
system.ruby.network.routers08.sw_output_arbiter_activity           34                      
system.ruby.network.routers09.buffer_reads           82                      
system.ruby.network.routers09.buffer_writes           82                      
system.ruby.network.routers09.crossbar_activity           82                      
system.ruby.network.routers09.sw_input_arbiter_activity           82                      
system.ruby.network.routers09.sw_output_arbiter_activity           82                      
system.ruby.network.routers10.buffer_reads          265                      
system.ruby.network.routers10.buffer_writes          265                      
system.ruby.network.routers10.crossbar_activity          262                      
system.ruby.network.routers10.sw_input_arbiter_activity          269                      
system.ruby.network.routers10.sw_output_arbiter_activity          262                      
system.ruby.network.routers11.buffer_reads            5                      
system.ruby.network.routers11.buffer_writes            5                      
system.ruby.network.routers11.crossbar_activity            5                      
system.ruby.network.routers11.sw_input_arbiter_activity            5                      
system.ruby.network.routers11.sw_output_arbiter_activity            5                      
system.ruby.network.routers12.buffer_reads           36                      
system.ruby.network.routers12.buffer_writes           36                      
system.ruby.network.routers12.crossbar_activity           36                      
system.ruby.network.routers12.sw_input_arbiter_activity           36                      
system.ruby.network.routers12.sw_output_arbiter_activity           36                      
system.ruby.network.routers13.buffer_reads           36                      
system.ruby.network.routers13.buffer_writes           36                      
system.ruby.network.routers13.crossbar_activity           36                      
system.ruby.network.routers13.sw_input_arbiter_activity           36                      
system.ruby.network.routers13.sw_output_arbiter_activity           36                      
system.ruby.network.routers14.buffer_reads           29                      
system.ruby.network.routers14.buffer_writes           29                      
system.ruby.network.routers14.crossbar_activity           29                      
system.ruby.network.routers14.sw_input_arbiter_activity           29                      
system.ruby.network.routers14.sw_output_arbiter_activity           29                      
system.ruby.network.routers15.buffer_reads            5                      
system.ruby.network.routers15.buffer_writes            5                      
system.ruby.network.routers15.crossbar_activity            5                      
system.ruby.network.routers15.sw_input_arbiter_activity            5                      
system.ruby.network.routers15.sw_output_arbiter_activity            5                      
system.ruby.outstanding_req_hist_seqr::bucket_size            1                      
system.ruby.outstanding_req_hist_seqr::max_bucket            9                      
system.ruby.outstanding_req_hist_seqr::samples           13                      
system.ruby.outstanding_req_hist_seqr::mean            1                      
system.ruby.outstanding_req_hist_seqr::gmean            1                      
system.ruby.outstanding_req_hist_seqr    |           0      0.00%      0.00% |          13    100.00%    100.00% |           0      0.00%    100.00% |           0      0.00%    100.00% |           0      0.00%    100.00% |           0      0.00%    100.00% |           0      0.00%    100.00% |           0      0.00%    100.00% |           0      0.00%    100.00% |           0      0.00%    100.00%
system.ruby.outstanding_req_hist_seqr::total           13                      
system.clk_domain.clock                          1000                       # Clock period in ticks
system.cpu0.power_state.pwrStateResidencyTicks::UNDEFINED       100000                       # Cumulative time (in ticks) in various power states
system.cpu1.power_state.pwrStateResidencyTicks::UNDEFINED       100000                       # Cumulative time (in ticks) in various power states
system.cpu10.power_state.pwrStateResidencyTicks::UNDEFINED       100000                       # Cumulative time (in ticks) in various power states
system.cpu11.power_state.pwrStateResidencyTicks::UNDEFINED       100000                       # Cumulative time (in ticks) in various power states
system.cpu12.power_state.pwrStateResidencyTicks::UNDEFINED       100000                       # Cumulative time (in ticks) in various power states
system.cpu13.power_state.pwrStateResidencyTicks::UNDEFINED       100000                       # Cumulative time (in ticks) in various power states
system.cpu14.power_state.pwrStateResidencyTicks::UNDEFINED       100000                       # Cumulative time (in ticks) in various power states
system.cpu15.power_state.pwrStateResidencyTicks::UNDEFINED       100000                       # Cumulative time (in ticks) in various power states
system.cpu2.power_state.pwrStateResidencyTicks::UNDEFINED       100000                       # Cumulative time (in ticks) in various power states
system.cpu3.power_state.pwrStateResidencyTicks::UNDEFINED       100000                       # Cumulative time (in ticks) in various power states
system.cpu4.power_state.pwrStateResidencyTicks::UNDEFINED       100000                       # Cumulative time (in ticks) in various power states
system.cpu5.power_state.pwrStateResidencyTicks::UNDEFINED       100000                       # Cumulative time (in ticks) in various power states
system.cpu6.power_state.pwrStateResidencyTicks::UNDEFINED       100000                       # Cumulative time (in ticks) in various power states
system.cpu7.power_state.pwrStateResidencyTicks::UNDEFINED       100000                       # Cumulative time (in ticks) in various power states
system.cpu8.power_state.pwrStateResidencyTicks::UNDEFINED       100000                       # Cumulative time (in ticks) in various power states
system.cpu9.power_state.pwrStateResidencyTicks::UNDEFINED       100000                       # Cumulative time (in ticks) in various power states
system.mem_ctrls0.priorityMinLatency     0.000000000000                       # per QoS priority minimum request to response latency (s)
system.mem_ctrls0.priorityMaxLatency     0.000000000000                       # per QoS priority maximum request to response latency (s)
system.mem_ctrls0.numReadWriteTurnArounds            0                       # Number of turnarounds from READ to WRITE
system.mem_ctrls0.numWriteReadTurnArounds            0                       # Number of turnarounds from WRITE to READ
system.mem_ctrls0.numStayReadState                  0                       # Number of times bus staying in READ state
system.mem_ctrls0.numStayWriteState                 0                       # Number of times bus staying in WRITE state
system.mem_ctrls0.readReqs                          0                       # Number of read requests accepted
system.mem_ctrls0.writeReqs                         0                       # Number of write requests accepted
system.mem_ctrls0.readBursts                        0                       # Number of controller read bursts, including those serviced by the write queue
system.mem_ctrls0.writeBursts                       0                       # Number of controller write bursts, including those merged in the write queue
system.mem_ctrls0.servicedByWrQ                     0                       # Number of controller read bursts serviced by the write queue
system.mem_ctrls0.mergedWrBursts                    0                       # Number of controller write bursts merged with an existing one
system.mem_ctrls0.neitherReadNorWriteReqs            0                       # Number of requests that are neither read nor write
system.mem_ctrls0.avgRdQLen                      0.00                       # Average read queue length when enqueuing
system.mem_ctrls0.avgWrQLen                      0.00                       # Average write queue length when enqueuing
system.mem_ctrls0.numRdRetry                        0                       # Number of times read queue was full causing retry
system.mem_ctrls0.numWrRetry                        0                       # Number of times write queue was full causing retry
system.mem_ctrls0.readPktSize::0                    0                       # Read request sizes (log2)
system.mem_ctrls0.readPktSize::1                    0                       # Read request sizes (log2)
system.mem_ctrls0.readPktSize::2                    0                       # Read request sizes (log2)
system.mem_ctrls0.readPktSize::3                    0                       # Read request sizes (log2)
system.mem_ctrls0.readPktSize::4                    0                       # Read request sizes (log2)
system.mem_ctrls0.readPktSize::5                    0                       # Read request sizes (log2)
system.mem_ctrls0.readPktSize::6                    0                       # Read request sizes (log2)
system.mem_ctrls0.writePktSize::0                   0                       # Write request sizes (log2)
system.mem_ctrls0.writePktSize::1                   0                       # Write request sizes (log2)
system.mem_ctrls0.writePktSize::2                   0                       # Write request sizes (log2)
system.mem_ctrls0.writePktSize::3                   0                       # Write request sizes (log2)
system.mem_ctrls0.writePktSize::4                   0                       # Write request sizes (log2)
system.mem_ctrls0.writePktSize::5                   0                       # Write request sizes (log2)
system.mem_ctrls0.writePktSize::6                   0                       # Write request sizes (log2)
system.mem_ctrls0.rdQLenPdf::0                      0                       # What read queue length does an incoming req see
system.mem_ctrls0.rdQLenPdf::1                      0                       # What read queue length does an incoming req see
system.mem_ctrls0.rdQLenPdf::2                      0                       # What read queue length does an incoming req see
system.mem_ctrls0.rdQLenPdf::3                      0                       # What read queue length does an incoming req see
system.mem_ctrls0.rdQLenPdf::4                      0                       # What read queue length does an incoming req see
system.mem_ctrls0.rdQLenPdf::5                      0                       # What read queue length does an incoming req see
system.mem_ctrls0.rdQLenPdf::6                      0                       # What read queue length does an incoming req see
system.mem_ctrls0.rdQLenPdf::7                      0                       # What read queue length does an incoming req see
system.mem_ctrls0.rdQLenPdf::8                      0                       # What read queue length does an incoming req see
system.mem_ctrls0.rdQLenPdf::9                      0                       # What read queue length does an incoming req see
system.mem_ctrls0.rdQLenPdf::10                     0                       # What read queue length does an incoming req see
system.mem_ctrls0.rdQLenPdf::11                     0                       # What read queue length does an incoming req see
system.mem_ctrls0.rdQLenPdf::12                     0                       # What read queue length does an incoming req see
system.mem_ctrls0.rdQLenPdf::13                     0                       # What read queue length does an incoming req see
system.mem_ctrls0.rdQLenPdf::14                     0                       # What read queue length does an incoming req see
system.mem_ctrls0.rdQLenPdf::15                     0                       # What read queue length does an incoming req see
system.mem_ctrls0.rdQLenPdf::16                     0                       # What read queue length does an incoming req see
system.mem_ctrls0.rdQLenPdf::17                     0                       # What read queue length does an incoming req see
system.mem_ctrls0.rdQLenPdf::18                     0                       # What read queue length does an incoming req see
system.mem_ctrls0.rdQLenPdf::19                     0                       # What read queue length does an incoming req see
system.mem_ctrls0.rdQLenPdf::20                     0                       # What read queue length does an incoming req see
system.mem_ctrls0.rdQLenPdf::21                     0                       # What read queue length does an incoming req see
system.mem_ctrls0.rdQLenPdf::22                     0                       # What read queue length does an incoming req see
system.mem_ctrls0.rdQLenPdf::23                     0                       # What read queue length does an incoming req see
system.mem_ctrls0.rdQLenPdf::24                     0                       # What read queue length does an incoming req see
system.mem_ctrls0.rdQLenPdf::25                     0                       # What read queue length does an incoming req see
system.mem_ctrls0.rdQLenPdf::26                     0                       # What read queue length does an incoming req see
system.mem_ctrls0.rdQLenPdf::27                     0                       # What read queue length does an incoming req see
system.mem_ctrls0.rdQLenPdf::28                     0                       # What read queue length does an incoming req see
system.mem_ctrls0.rdQLenPdf::29                     0                       # What read queue length does an incoming req see
system.mem_ctrls0.rdQLenPdf::30                     0                       # What read queue length does an incoming req see
system.mem_ctrls0.rdQLenPdf::31                     0                       # What read queue length does an incoming req see
system.mem_ctrls0.wrQLenPdf::0                      0                       # What write queue length does an incoming req see
system.mem_ctrls0.wrQLenPdf::1                      0                       # What write queue length does an incoming req see
system.mem_ctrls0.wrQLenPdf::2                      0                       # What write queue length does an incoming req see
system.mem_ctrls0.wrQLenPdf::3                      0                       # What write queue length does an incoming req see
system.mem_ctrls0.wrQLenPdf::4                      0                       # What write queue length does an incoming req see
system.mem_ctrls0.wrQLenPdf::5                      0                       # What write queue length does an incoming req see
system.mem_ctrls0.wrQLenPdf::6                      0                       # What write queue length does an incoming req see
system.mem_ctrls0.wrQLenPdf::7                      0                       # What write queue length does an incoming req see
system.mem_ctrls0.wrQLenPdf::8                      0                       # What write queue length does an incoming req see
system.mem_ctrls0.wrQLenPdf::9                      0                       # What write queue length does an incoming req see
system.mem_ctrls0.wrQLenPdf::10                     0                       # What write queue length does an incoming req see
system.mem_ctrls0.wrQLenPdf::11                     0                       # What write queue length does an incoming req see
system.mem_ctrls0.wrQLenPdf::12                     0                       # What write queue length does an incoming req see
system.mem_ctrls0.wrQLenPdf::13                     0                       # What write queue length does an incoming req see
system.mem_ctrls0.wrQLenPdf::14                     0                       # What write queue length does an incoming req see
system.mem_ctrls0.wrQLenPdf::15                     0                       # What write queue length does an incoming req see
system.mem_ctrls0.wrQLenPdf::16                     0                       # What write queue length does an incoming req see
system.mem_ctrls0.wrQLenPdf::17                     0                       # What write queue length does an incoming req see
system.mem_ctrls0.wrQLenPdf::18                     0                       # What write queue length does an incoming req see
system.mem_ctrls0.wrQLenPdf::19                     0                       # What write queue length does an incoming req see
system.mem_ctrls0.wrQLenPdf::20                     0                       # What write queue length does an incoming req see
system.mem_ctrls0.wrQLenPdf::21                     0                       # What write queue length does an incoming req see
system.mem_ctrls0.wrQLenPdf::22                     0                       # What write queue length does an incoming req see
system.mem_ctrls0.wrQLenPdf::23                     0                       # What write queue length does an incoming req see
system.mem_ctrls0.wrQLenPdf::24                     0                       # What write queue length does an incoming req see
system.mem_ctrls0.wrQLenPdf::25                     0                       # What write queue length does an incoming req see
system.mem_ctrls0.wrQLenPdf::26                     0                       # What write queue length does an incoming req see
system.mem_ctrls0.wrQLenPdf::27                     0                       # What write queue length does an incoming req see
system.mem_ctrls0.wrQLenPdf::28                     0                       # What write queue length does an incoming req see
system.mem_ctrls0.wrQLenPdf::29                     0                       # What write queue length does an incoming req see
system.mem_ctrls0.wrQLenPdf::30                     0                       # What write queue length does an incoming req see
system.mem_ctrls0.wrQLenPdf::31                     0                       # What write queue length does an incoming req see
system.mem_ctrls0.wrQLenPdf::32                     0                       # What write queue length does an incoming req see
system.mem_ctrls0.wrQLenPdf::33                     0                       # What write queue length does an incoming req see
system.mem_ctrls0.wrQLenPdf::34                     0                       # What write queue length does an incoming req see
system.mem_ctrls0.wrQLenPdf::35                     0                       # What write queue length does an incoming req see
system.mem_ctrls0.wrQLenPdf::36                     0                       # What write queue length does an incoming req see
system.mem_ctrls0.wrQLenPdf::37                     0                       # What write queue length does an incoming req see
system.mem_ctrls0.wrQLenPdf::38                     0                       # What write queue length does an incoming req see
system.mem_ctrls0.wrQLenPdf::39                     0                       # What write queue length does an incoming req see
system.mem_ctrls0.wrQLenPdf::40                     0                       # What write queue length does an incoming req see
system.mem_ctrls0.wrQLenPdf::41                     0                       # What write queue length does an incoming req see
system.mem_ctrls0.wrQLenPdf::42                     0                       # What write queue length does an incoming req see
system.mem_ctrls0.wrQLenPdf::43                     0                       # What write queue length does an incoming req see
system.mem_ctrls0.wrQLenPdf::44                     0                       # What write queue length does an incoming req see
system.mem_ctrls0.wrQLenPdf::45                     0                       # What write queue length does an incoming req see
system.mem_ctrls0.wrQLenPdf::46                     0                       # What write queue length does an incoming req see
system.mem_ctrls0.wrQLenPdf::47                     0                       # What write queue length does an incoming req see
system.mem_ctrls0.wrQLenPdf::48                     0                       # What write queue length does an incoming req see
system.mem_ctrls0.wrQLenPdf::49                     0                       # What write queue length does an incoming req see
system.mem_ctrls0.wrQLenPdf::50                     0                       # What write queue length does an incoming req see
system.mem_ctrls0.wrQLenPdf::51                     0                       # What write queue length does an incoming req see
system.mem_ctrls0.wrQLenPdf::52                     0                       # What write queue length does an incoming req see
system.mem_ctrls0.wrQLenPdf::53                     0                       # What write queue length does an incoming req see
system.mem_ctrls0.wrQLenPdf::54                     0                       # What write queue length does an incoming req see
system.mem_ctrls0.wrQLenPdf::55                     0                       # What write queue length does an incoming req see
system.mem_ctrls0.wrQLenPdf::56                     0                       # What write queue length does an incoming req see
system.mem_ctrls0.wrQLenPdf::57                     0                       # What write queue length does an incoming req see
system.mem_ctrls0.wrQLenPdf::58                     0                       # What write queue length does an incoming req see
system.mem_ctrls0.wrQLenPdf::59                     0                       # What write queue length does an incoming req see
system.mem_ctrls0.wrQLenPdf::60                     0                       # What write queue length does an incoming req see
system.mem_ctrls0.wrQLenPdf::61                     0                       # What write queue length does an incoming req see
system.mem_ctrls0.wrQLenPdf::62                     0                       # What write queue length does an incoming req see
system.mem_ctrls0.wrQLenPdf::63                     0                       # What write queue length does an incoming req see
system.mem_ctrls0.bytesReadWrQ                      0                       # Total number of bytes read from write queue
system.mem_ctrls0.bytesReadSys                      0                       # Total read bytes from the system interface side
system.mem_ctrls0.bytesWrittenSys                   0                       # Total written bytes from the system interface side
system.mem_ctrls0.avgRdBWSys                     0.00                       # Average system read bandwidth in MiByte/s
system.mem_ctrls0.avgWrBWSys                     0.00                       # Average system write bandwidth in MiByte/s
system.mem_ctrls0.totGap                            0                       # Total gap between requests
system.mem_ctrls0.avgGap                          nan                       # Average gap between requests
system.mem_ctrls0.dram.readBursts                   0                       # Number of DRAM read bursts
system.mem_ctrls0.dram.writeBursts                  0                       # Number of DRAM write bursts
system.mem_ctrls0.dram.perBankRdBursts::0            0                       # Per bank write bursts
system.mem_ctrls0.dram.perBankRdBursts::1            0                       # Per bank write bursts
system.mem_ctrls0.dram.perBankRdBursts::2            0                       # Per bank write bursts
system.mem_ctrls0.dram.perBankRdBursts::3            0                       # Per bank write bursts
system.mem_ctrls0.dram.perBankRdBursts::4            0                       # Per bank write bursts
system.mem_ctrls0.dram.perBankRdBursts::5            0                       # Per bank write bursts
system.mem_ctrls0.dram.perBankRdBursts::6            0                       # Per bank write bursts
system.mem_ctrls0.dram.perBankRdBursts::7            0                       # Per bank write bursts
system.mem_ctrls0.dram.perBankRdBursts::8            0                       # Per bank write bursts
system.mem_ctrls0.dram.perBankRdBursts::9            0                       # Per bank write bursts
system.mem_ctrls0.dram.perBankRdBursts::10            0                       # Per bank write bursts
system.mem_ctrls0.dram.perBankRdBursts::11            0                       # Per bank write bursts
system.mem_ctrls0.dram.perBankRdBursts::12            0                       # Per bank write bursts
system.mem_ctrls0.dram.perBankRdBursts::13            0                       # Per bank write bursts
system.mem_ctrls0.dram.perBankRdBursts::14            0                       # Per bank write bursts
system.mem_ctrls0.dram.perBankRdBursts::15            0                       # Per bank write bursts
system.mem_ctrls0.dram.perBankWrBursts::0            0                       # Per bank write bursts
system.mem_ctrls0.dram.perBankWrBursts::1            0                       # Per bank write bursts
system.mem_ctrls0.dram.perBankWrBursts::2            0                       # Per bank write bursts
system.mem_ctrls0.dram.perBankWrBursts::3            0                       # Per bank write bursts
system.mem_ctrls0.dram.perBankWrBursts::4            0                       # Per bank write bursts
system.mem_ctrls0.dram.perBankWrBursts::5            0                       # Per bank write bursts
system.mem_ctrls0.dram.perBankWrBursts::6            0                       # Per bank write bursts
system.mem_ctrls0.dram.perBankWrBursts::7            0                       # Per bank write bursts
system.mem_ctrls0.dram.perBankWrBursts::8            0                       # Per bank write bursts
system.mem_ctrls0.dram.perBankWrBursts::9            0                       # Per bank write bursts
system.mem_ctrls0.dram.perBankWrBursts::10            0                       # Per bank write bursts
system.mem_ctrls0.dram.perBankWrBursts::11            0                       # Per bank write bursts
system.mem_ctrls0.dram.perBankWrBursts::12            0                       # Per bank write bursts
system.mem_ctrls0.dram.perBankWrBursts::13            0                       # Per bank write bursts
system.mem_ctrls0.dram.perBankWrBursts::14            0                       # Per bank write bursts
system.mem_ctrls0.dram.perBankWrBursts::15            0                       # Per bank write bursts
system.mem_ctrls0.dram.totQLat                      0                       # Total ticks spent queuing
system.mem_ctrls0.dram.totBusLat                    0                       # Total ticks spent in databus transfers
system.mem_ctrls0.dram.totMemAccLat                 0                       # Total ticks spent from burst creation until serviced by the DRAM
system.mem_ctrls0.dram.avgQLat                    nan                       # Average queueing delay per DRAM burst
system.mem_ctrls0.dram.avgBusLat                  nan                       # Average bus latency per DRAM burst
system.mem_ctrls0.dram.avgMemAccLat               nan                       # Average memory access latency per DRAM burst
system.mem_ctrls0.dram.readRowHits                  0                       # Number of row buffer hits during reads
system.mem_ctrls0.dram.writeRowHits                 0                       # Number of row buffer hits during writes
system.mem_ctrls0.dram.readRowHitRate             nan                       # Row buffer hit rate for reads
system.mem_ctrls0.dram.writeRowHitRate            nan                       # Row buffer hit rate for writes
system.mem_ctrls0.dram.bytesRead                    0                       # Total number of bytes read from DRAM
system.mem_ctrls0.dram.bytesWritten                 0                       # Total number of bytes written to DRAM
system.mem_ctrls0.dram.avgRdBW                      0                       # Average DRAM read bandwidth in MiBytes/s
system.mem_ctrls0.dram.avgWrBW                      0                       # Average DRAM write bandwidth in MiBytes/s
system.mem_ctrls0.dram.peakBW                12800.00                       # Theoretical peak bandwidth in MiByte/s
system.mem_ctrls0.dram.busUtil                   0.00                       # Data bus utilization in percentage
system.mem_ctrls0.dram.busUtilRead               0.00                       # Data bus utilization in percentage for reads
system.mem_ctrls0.dram.busUtilWrite              0.00                       # Data bus utilization in percentage for writes
system.mem_ctrls0.dram.pageHitRate                nan                       # Row buffer hit rate, read and write combined
system.mem_ctrls0.dram.power_state.pwrStateResidencyTicks::UNDEFINED       100000                       # Cumulative time (in ticks) in various power states
system.mem_ctrls0.dram.rank0.actEnergy              0                       # Energy for activate commands per rank (pJ)
system.mem_ctrls0.dram.rank0.preEnergy              0                       # Energy for precharge commands per rank (pJ)
system.mem_ctrls0.dram.rank0.readEnergy             0                       # Energy for read commands per rank (pJ)
system.mem_ctrls0.dram.rank0.writeEnergy            0                       # Energy for write commands per rank (pJ)
system.mem_ctrls0.dram.rank0.refreshEnergy            0                       # Energy for refresh commands per rank (pJ)
system.mem_ctrls0.dram.rank0.actBackEnergy            0                       # Energy for active background per rank (pJ)
system.mem_ctrls0.dram.rank0.preBackEnergy        38400                       # Energy for precharge background per rank (pJ)
system.mem_ctrls0.dram.rank0.actPowerDownEnergy            0                       # Energy for active power-down per rank (pJ)
system.mem_ctrls0.dram.rank0.prePowerDownEnergy            0                       # Energy for precharge power-down per rank (pJ)
system.mem_ctrls0.dram.rank0.selfRefreshEnergy            0                       # Energy for self refresh per rank (pJ)
system.mem_ctrls0.dram.rank0.totalEnergy        38400                       # Total energy per rank (pJ)
system.mem_ctrls0.dram.rank0.averagePower          384                       # Core power per rank (mW)
system.mem_ctrls0.dram.rank0.totalIdleTime            0                       # Total Idle time Per DRAM Rank
system.mem_ctrls0.dram.rank0.pwrStateTime::IDLE       100000                       # Time in different power states
system.mem_ctrls0.dram.rank0.pwrStateTime::REF            0                       # Time in different power states
system.mem_ctrls0.dram.rank0.pwrStateTime::SREF            0                       # Time in different power states
system.mem_ctrls0.dram.rank0.pwrStateTime::PRE_PDN            0                       # Time in different power states
system.mem_ctrls0.dram.rank0.pwrStateTime::ACT            0                       # Time in different power states
system.mem_ctrls0.dram.rank0.pwrStateTime::ACT_PDN            0                       # Time in different power states
system.mem_ctrls0.dram.rank1.actEnergy              0                       # Energy for activate commands per rank (pJ)
system.mem_ctrls0.dram.rank1.preEnergy              0                       # Energy for precharge commands per rank (pJ)
system.mem_ctrls0.dram.rank1.readEnergy             0                       # Energy for read commands per rank (pJ)
system.mem_ctrls0.dram.rank1.writeEnergy            0                       # Energy for write commands per rank (pJ)
system.mem_ctrls0.dram.rank1.refreshEnergy            0                       # Energy for refresh commands per rank (pJ)
system.mem_ctrls0.dram.rank1.actBackEnergy            0                       # Energy for active background per rank (pJ)
system.mem_ctrls0.dram.rank1.preBackEnergy        38400                       # Energy for precharge background per rank (pJ)
system.mem_ctrls0.dram.rank1.actPowerDownEnergy            0                       # Energy for active power-down per rank (pJ)
system.mem_ctrls0.dram.rank1.prePowerDownEnergy            0                       # Energy for precharge power-down per rank (pJ)
system.mem_ctrls0.dram.rank1.selfRefreshEnergy            0                       # Energy for self refresh per rank (pJ)
system.mem_ctrls0.dram.rank1.totalEnergy        38400                       # Total energy per rank (pJ)
system.mem_ctrls0.dram.rank1.averagePower          384                       # Core power per rank (mW)
system.mem_ctrls0.dram.rank1.totalIdleTime            0                       # Total Idle time Per DRAM Rank
system.mem_ctrls0.dram.rank1.pwrStateTime::IDLE       100000                       # Time in different power states
system.mem_ctrls0.dram.rank1.pwrStateTime::REF            0                       # Time in different power states
system.mem_ctrls0.dram.rank1.pwrStateTime::SREF            0                       # Time in different power states
system.mem_ctrls0.dram.rank1.pwrStateTime::PRE_PDN            0                       # Time in different power states
system.mem_ctrls0.dram.rank1.pwrStateTime::ACT            0                       # Time in different power states
system.mem_ctrls0.dram.rank1.pwrStateTime::ACT_PDN            0                       # Time in different power states
system.mem_ctrls0.power_state.pwrStateResidencyTicks::UNDEFINED       100000                       # Cumulative time (in ticks) in various power states
system.mem_ctrls1.priorityMinLatency     0.000000000000                       # per QoS priority minimum request to response latency (s)
system.mem_ctrls1.priorityMaxLatency     0.000000000000                       # per QoS priority maximum request to response latency (s)
system.mem_ctrls1.numReadWriteTurnArounds            0                       # Number of turnarounds from READ to WRITE
system.mem_ctrls1.numWriteReadTurnArounds            0                       # Number of turnarounds from WRITE to READ
system.mem_ctrls1.numStayReadState                  0                       # Number of times bus staying in READ state
system.mem_ctrls1.numStayWriteState                 0                       # Number of times bus staying in WRITE state
system.mem_ctrls1.readReqs                          0                       # Number of read requests accepted
system.mem_ctrls1.writeReqs                         0                       # Number of write requests accepted
system.mem_ctrls1.readBursts                        0                       # Number of controller read bursts, including those serviced by the write queue
system.mem_ctrls1.writeBursts                       0                       # Number of controller write bursts, including those merged in the write queue
system.mem_ctrls1.servicedByWrQ                     0                       # Number of controller read bursts serviced by the write queue
system.mem_ctrls1.mergedWrBursts                    0                       # Number of controller write bursts merged with an existing one
system.mem_ctrls1.neitherReadNorWriteReqs            0                       # Number of requests that are neither read nor write
system.mem_ctrls1.avgRdQLen                      0.00                       # Average read queue length when enqueuing
system.mem_ctrls1.avgWrQLen                      0.00                       # Average write queue length when enqueuing
system.mem_ctrls1.numRdRetry                        0                       # Number of times read queue was full causing retry
system.mem_ctrls1.numWrRetry                        0                       # Number of times write queue was full causing retry
system.mem_ctrls1.readPktSize::0                    0                       # Read request sizes (log2)
system.mem_ctrls1.readPktSize::1                    0                       # Read request sizes (log2)
system.mem_ctrls1.readPktSize::2                    0                       # Read request sizes (log2)
system.mem_ctrls1.readPktSize::3                    0                       # Read request sizes (log2)
system.mem_ctrls1.readPktSize::4                    0                       # Read request sizes (log2)
system.mem_ctrls1.readPktSize::5                    0                       # Read request sizes (log2)
system.mem_ctrls1.readPktSize::6                    0                       # Read request sizes (log2)
system.mem_ctrls1.writePktSize::0                   0                       # Write request sizes (log2)
system.mem_ctrls1.writePktSize::1                   0                       # Write request sizes (log2)
system.mem_ctrls1.writePktSize::2                   0                       # Write request sizes (log2)
system.mem_ctrls1.writePktSize::3                   0                       # Write request sizes (log2)
system.mem_ctrls1.writePktSize::4                   0                       # Write request sizes (log2)
system.mem_ctrls1.writePktSize::5                   0                       # Write request sizes (log2)
system.mem_ctrls1.writePktSize::6                   0                       # Write request sizes (log2)
system.mem_ctrls1.rdQLenPdf::0                      0                       # What read queue length does an incoming req see
system.mem_ctrls1.rdQLenPdf::1                      0                       # What read queue length does an incoming req see
system.mem_ctrls1.rdQLenPdf::2                      0                       # What read queue length does an incoming req see
system.mem_ctrls1.rdQLenPdf::3                      0                       # What read queue length does an incoming req see
system.mem_ctrls1.rdQLenPdf::4                      0                       # What read queue length does an incoming req see
system.mem_ctrls1.rdQLenPdf::5                      0                       # What read queue length does an incoming req see
system.mem_ctrls1.rdQLenPdf::6                      0                       # What read queue length does an incoming req see
system.mem_ctrls1.rdQLenPdf::7                      0                       # What read queue length does an incoming req see
system.mem_ctrls1.rdQLenPdf::8                      0                       # What read queue length does an incoming req see
system.mem_ctrls1.rdQLenPdf::9                      0                       # What read queue length does an incoming req see
system.mem_ctrls1.rdQLenPdf::10                     0                       # What read queue length does an incoming req see
system.mem_ctrls1.rdQLenPdf::11                     0                       # What read queue length does an incoming req see
system.mem_ctrls1.rdQLenPdf::12                     0                       # What read queue length does an incoming req see
system.mem_ctrls1.rdQLenPdf::13                     0                       # What read queue length does an incoming req see
system.mem_ctrls1.rdQLenPdf::14                     0                       # What read queue length does an incoming req see
system.mem_ctrls1.rdQLenPdf::15                     0                       # What read queue length does an incoming req see
system.mem_ctrls1.rdQLenPdf::16                     0                       # What read queue length does an incoming req see
system.mem_ctrls1.rdQLenPdf::17                     0                       # What read queue length does an incoming req see
system.mem_ctrls1.rdQLenPdf::18                     0                       # What read queue length does an incoming req see
system.mem_ctrls1.rdQLenPdf::19                     0                       # What read queue length does an incoming req see
system.mem_ctrls1.rdQLenPdf::20                     0                       # What read queue length does an incoming req see
system.mem_ctrls1.rdQLenPdf::21                     0                       # What read queue length does an incoming req see
system.mem_ctrls1.rdQLenPdf::22                     0                       # What read queue length does an incoming req see
system.mem_ctrls1.rdQLenPdf::23                     0                       # What read queue length does an incoming req see
system.mem_ctrls1.rdQLenPdf::24                     0                       # What read queue length does an incoming req see
system.mem_ctrls1.rdQLenPdf::25                     0                       # What read queue length does an incoming req see
system.mem_ctrls1.rdQLenPdf::26                     0                       # What read queue length does an incoming req see
system.mem_ctrls1.rdQLenPdf::27                     0                       # What read queue length does an incoming req see
system.mem_ctrls1.rdQLenPdf::28                     0                       # What read queue length does an incoming req see
system.mem_ctrls1.rdQLenPdf::29                     0                       # What read queue length does an incoming req see
system.mem_ctrls1.rdQLenPdf::30                     0                       # What read queue length does an incoming req see
system.mem_ctrls1.rdQLenPdf::31                     0                       # What read queue length does an incoming req see
system.mem_ctrls1.wrQLenPdf::0                      0                       # What write queue length does an incoming req see
system.mem_ctrls1.wrQLenPdf::1                      0                       # What write queue length does an incoming req see
system.mem_ctrls1.wrQLenPdf::2                      0                       # What write queue length does an incoming req see
system.mem_ctrls1.wrQLenPdf::3                      0                       # What write queue length does an incoming req see
system.mem_ctrls1.wrQLenPdf::4                      0                       # What write queue length does an incoming req see
system.mem_ctrls1.wrQLenPdf::5                      0                       # What write queue length does an incoming req see
system.mem_ctrls1.wrQLenPdf::6                      0                       # What write queue length does an incoming req see
system.mem_ctrls1.wrQLenPdf::7                      0                       # What write queue length does an incoming req see
system.mem_ctrls1.wrQLenPdf::8                      0                       # What write queue length does an incoming req see
system.mem_ctrls1.wrQLenPdf::9                      0                       # What write queue length does an incoming req see
system.mem_ctrls1.wrQLenPdf::10                     0                       # What write queue length does an incoming req see
system.mem_ctrls1.wrQLenPdf::11                     0                       # What write queue length does an incoming req see
system.mem_ctrls1.wrQLenPdf::12                     0                       # What write queue length does an incoming req see
system.mem_ctrls1.wrQLenPdf::13                     0                       # What write queue length does an incoming req see
system.mem_ctrls1.wrQLenPdf::14                     0                       # What write queue length does an incoming req see
system.mem_ctrls1.wrQLenPdf::15                     0                       # What write queue length does an incoming req see
system.mem_ctrls1.wrQLenPdf::16                     0                       # What write queue length does an incoming req see
system.mem_ctrls1.wrQLenPdf::17                     0                       # What write queue length does an incoming req see
system.mem_ctrls1.wrQLenPdf::18                     0                       # What write queue length does an incoming req see
system.mem_ctrls1.wrQLenPdf::19                     0                       # What write queue length does an incoming req see
system.mem_ctrls1.wrQLenPdf::20                     0                       # What write queue length does an incoming req see
system.mem_ctrls1.wrQLenPdf::21                     0                       # What write queue length does an incoming req see
system.mem_ctrls1.wrQLenPdf::22                     0                       # What write queue length does an incoming req see
system.mem_ctrls1.wrQLenPdf::23                     0                       # What write queue length does an incoming req see
system.mem_ctrls1.wrQLenPdf::24                     0                       # What write queue length does an incoming req see
system.mem_ctrls1.wrQLenPdf::25                     0                       # What write queue length does an incoming req see
system.mem_ctrls1.wrQLenPdf::26                     0                       # What write queue length does an incoming req see
system.mem_ctrls1.wrQLenPdf::27                     0                       # What write queue length does an incoming req see
system.mem_ctrls1.wrQLenPdf::28                     0                       # What write queue length does an incoming req see
system.mem_ctrls1.wrQLenPdf::29                     0                       # What write queue length does an incoming req see
system.mem_ctrls1.wrQLenPdf::30                     0                       # What write queue length does an incoming req see
system.mem_ctrls1.wrQLenPdf::31                     0                       # What write queue length does an incoming req see
system.mem_ctrls1.wrQLenPdf::32                     0                       # What write queue length does an incoming req see
system.mem_ctrls1.wrQLenPdf::33                     0                       # What write queue length does an incoming req see
system.mem_ctrls1.wrQLenPdf::34                     0                       # What write queue length does an incoming req see
system.mem_ctrls1.wrQLenPdf::35                     0                       # What write queue length does an incoming req see
system.mem_ctrls1.wrQLenPdf::36                     0                       # What write queue length does an incoming req see
system.mem_ctrls1.wrQLenPdf::37                     0                       # What write queue length does an incoming req see
system.mem_ctrls1.wrQLenPdf::38                     0                       # What write queue length does an incoming req see
system.mem_ctrls1.wrQLenPdf::39                     0                       # What write queue length does an incoming req see
system.mem_ctrls1.wrQLenPdf::40                     0                       # What write queue length does an incoming req see
system.mem_ctrls1.wrQLenPdf::41                     0                       # What write queue length does an incoming req see
system.mem_ctrls1.wrQLenPdf::42                     0                       # What write queue length does an incoming req see
system.mem_ctrls1.wrQLenPdf::43                     0                       # What write queue length does an incoming req see
system.mem_ctrls1.wrQLenPdf::44                     0                       # What write queue length does an incoming req see
system.mem_ctrls1.wrQLenPdf::45                     0                       # What write queue length does an incoming req see
system.mem_ctrls1.wrQLenPdf::46                     0                       # What write queue length does an incoming req see
system.mem_ctrls1.wrQLenPdf::47                     0                       # What write queue length does an incoming req see
system.mem_ctrls1.wrQLenPdf::48                     0                       # What write queue length does an incoming req see
system.mem_ctrls1.wrQLenPdf::49                     0                       # What write queue length does an incoming req see
system.mem_ctrls1.wrQLenPdf::50                     0                       # What write queue length does an incoming req see
system.mem_ctrls1.wrQLenPdf::51                     0                       # What write queue length does an incoming req see
system.mem_ctrls1.wrQLenPdf::52                     0                       # What write queue length does an incoming req see
system.mem_ctrls1.wrQLenPdf::53                     0                       # What write queue length does an incoming req see
system.mem_ctrls1.wrQLenPdf::54                     0                       # What write queue length does an incoming req see
system.mem_ctrls1.wrQLenPdf::55                     0                       # What write queue length does an incoming req see
system.mem_ctrls1.wrQLenPdf::56                     0                       # What write queue length does an incoming req see
system.mem_ctrls1.wrQLenPdf::57                     0                       # What write queue length does an incoming req see
system.mem_ctrls1.wrQLenPdf::58                     0                       # What write queue length does an incoming req see
system.mem_ctrls1.wrQLenPdf::59                     0                       # What write queue length does an incoming req see
[...]
system.ruby.network.int_links42.dst_net_bridge.power_state.pwrStateResidencyTicks::UNDEFINED       100000                       # Cumulative time (in ticks) in various power states
system.ruby.network.int_links42.network_link.power_state.pwrStateResidencyTicks::UNDEFINED       100000                       # Cumulative time (in ticks) in various power states
system.ruby.network.int_links42.src_cred_bridge.power_state.pwrStateResidencyTicks::UNDEFINED       100000                       # Cumulative time (in ticks) in various power states
system.ruby.network.int_links42.src_net_bridge.power_state.pwrStateResidencyTicks::UNDEFINED       100000                       # Cumulative time (in ticks) in various power states
system.ruby.network.int_links43.credit_link.power_state.pwrStateResidencyTicks::UNDEFINED       100000                       # Cumulative time (in ticks) in various power states
system.ruby.network.int_links43.dst_cred_bridge.power_state.pwrStateResidencyTicks::UNDEFINED       100000                       # Cumulative time (in ticks) in various power states
system.ruby.network.int_links43.dst_net_bridge.power_state.pwrStateResidencyTicks::UNDEFINED       100000                       # Cumulative time (in ticks) in various power states
system.ruby.network.int_links43.network_link.power_state.pwrStateResidencyTicks::UNDEFINED       100000                       # Cumulative time (in ticks) in various power states
system.ruby.network.int_links43.src_cred_bridge.power_state.pwrStateResidencyTicks::UNDEFINED       100000                       # Cumulative time (in ticks) in various power states
system.ruby.network.int_links43.src_net_bridge.power_state.pwrStateResidencyTicks::UNDEFINED       100000                       # Cumulative time (in ticks) in various power states
system.ruby.network.int_links44.credit_link.power_state.pwrStateResidencyTicks::UNDEFINED       100000                       # Cumulative time (in ticks) in various power states
system.ruby.network.int_links44.dst_cred_bridge.power_state.pwrStateResidencyTicks::UNDEFINED       100000                       # Cumulative time (in ticks) in various power states
system.ruby.network.int_links44.dst_net_bridge.power_state.pwrStateResidencyTicks::UNDEFINED       100000                       # Cumulative time (in ticks) in various power states
system.ruby.network.int_links44.network_link.power_state.pwrStateResidencyTicks::UNDEFINED       100000                       # Cumulative time (in ticks) in various power states
system.ruby.network.int_links44.src_cred_bridge.power_state.pwrStateResidencyTicks::UNDEFINED       100000                       # Cumulative time (in ticks) in various power states
system.ruby.network.int_links44.src_net_bridge.power_state.pwrStateResidencyTicks::UNDEFINED       100000                       # Cumulative time (in ticks) in various power states
system.ruby.network.int_links45.credit_link.power_state.pwrStateResidencyTicks::UNDEFINED       100000                       # Cumulative time (in ticks) in various power states
system.ruby.network.int_links45.dst_cred_bridge.power_state.pwrStateResidencyTicks::UNDEFINED       100000                       # Cumulative time (in ticks) in various power states
system.ruby.network.int_links45.dst_net_bridge.power_state.pwrStateResidencyTicks::UNDEFINED       100000                       # Cumulative time (in ticks) in various power states
system.ruby.network.int_links45.network_link.power_state.pwrStateResidencyTicks::UNDEFINED       100000                       # Cumulative time (in ticks) in various power states
system.ruby.network.int_links45.src_cred_bridge.power_state.pwrStateResidencyTicks::UNDEFINED       100000                       # Cumulative time (in ticks) in various power states
system.ruby.network.int_links45.src_net_bridge.power_state.pwrStateResidencyTicks::UNDEFINED       100000                       # Cumulative time (in ticks) in various power states
system.ruby.network.int_links46.credit_link.power_state.pwrStateResidencyTicks::UNDEFINED       100000                       # Cumulative time (in ticks) in various power states
system.ruby.network.int_links46.dst_cred_bridge.power_state.pwrStateResidencyTicks::UNDEFINED       100000                       # Cumulative time (in ticks) in various power states
system.ruby.network.int_links46.dst_net_bridge.power_state.pwrStateResidencyTicks::UNDEFINED       100000                       # Cumulative time (in ticks) in various power states
system.ruby.network.int_links46.network_link.power_state.pwrStateResidencyTicks::UNDEFINED       100000                       # Cumulative time (in ticks) in various power states
system.ruby.network.int_links46.src_cred_bridge.power_state.pwrStateResidencyTicks::UNDEFINED       100000                       # Cumulative time (in ticks) in various power states
system.ruby.network.int_links46.src_net_bridge.power_state.pwrStateResidencyTicks::UNDEFINED       100000                       # Cumulative time (in ticks) in various power states
system.ruby.network.int_links47.credit_link.power_state.pwrStateResidencyTicks::UNDEFINED       100000                       # Cumulative time (in ticks) in various power states
system.ruby.network.int_links47.dst_cred_bridge.power_state.pwrStateResidencyTicks::UNDEFINED       100000                       # Cumulative time (in ticks) in various power states
system.ruby.network.int_links47.dst_net_bridge.power_state.pwrStateResidencyTicks::UNDEFINED       100000                       # Cumulative time (in ticks) in various power states
system.ruby.network.int_links47.network_link.power_state.pwrStateResidencyTicks::UNDEFINED       100000                       # Cumulative time (in ticks) in various power states
system.ruby.network.int_links47.src_cred_bridge.power_state.pwrStateResidencyTicks::UNDEFINED       100000                       # Cumulative time (in ticks) in various power states
system.ruby.network.int_links47.src_net_bridge.power_state.pwrStateResidencyTicks::UNDEFINED       100000                       # Cumulative time (in ticks) in various power states
system.ruby.network.int_links5.credit_link.power_state.pwrStateResidencyTicks::UNDEFINED       100000                       # Cumulative time (in ticks) in various power states
system.ruby.network.int_links5.dst_cred_bridge.power_state.pwrStateResidencyTicks::UNDEFINED       100000                       # Cumulative time (in ticks) in various power states
system.ruby.network.int_links5.dst_net_bridge.power_state.pwrStateResidencyTicks::UNDEFINED       100000                       # Cumulative time (in ticks) in various power states
system.ruby.network.int_links5.network_link.power_state.pwrStateResidencyTicks::UNDEFINED       100000                       # Cumulative time (in ticks) in various power states
system.ruby.network.int_links5.src_cred_bridge.power_state.pwrStateResidencyTicks::UNDEFINED       100000                       # Cumulative time (in ticks) in various power states
system.ruby.network.int_links5.src_net_bridge.power_state.pwrStateResidencyTicks::UNDEFINED       100000                       # Cumulative time (in ticks) in various power states
system.ruby.network.int_links6.credit_link.power_state.pwrStateResidencyTicks::UNDEFINED       100000                       # Cumulative time (in ticks) in various power states
system.ruby.network.int_links6.dst_cred_bridge.power_state.pwrStateResidencyTicks::UNDEFINED       100000                       # Cumulative time (in ticks) in various power states
system.ruby.network.int_links6.dst_net_bridge.power_state.pwrStateResidencyTicks::UNDEFINED       100000                       # Cumulative time (in ticks) in various power states
system.ruby.network.int_links6.network_link.power_state.pwrStateResidencyTicks::UNDEFINED       100000                       # Cumulative time (in ticks) in various power states
system.ruby.network.int_links6.src_cred_bridge.power_state.pwrStateResidencyTicks::UNDEFINED       100000                       # Cumulative time (in ticks) in various power states
system.ruby.network.int_links6.src_net_bridge.power_state.pwrStateResidencyTicks::UNDEFINED       100000                       # Cumulative time (in ticks) in various power states
system.ruby.network.int_links7.credit_link.power_state.pwrStateResidencyTicks::UNDEFINED       100000                       # Cumulative time (in ticks) in various power states
system.ruby.network.int_links7.dst_cred_bridge.power_state.pwrStateResidencyTicks::UNDEFINED       100000                       # Cumulative time (in ticks) in various power states
system.ruby.network.int_links7.dst_net_bridge.power_state.pwrStateResidencyTicks::UNDEFINED       100000                       # Cumulative time (in ticks) in various power states
system.ruby.network.int_links7.network_link.power_state.pwrStateResidencyTicks::UNDEFINED       100000                       # Cumulative time (in ticks) in various power states
system.ruby.network.int_links7.src_cred_bridge.power_state.pwrStateResidencyTicks::UNDEFINED       100000                       # Cumulative time (in ticks) in various power states
system.ruby.network.int_links7.src_net_bridge.power_state.pwrStateResidencyTicks::UNDEFINED       100000                       # Cumulative time (in ticks) in various power states
system.ruby.network.int_links8.credit_link.power_state.pwrStateResidencyTicks::UNDEFINED       100000                       # Cumulative time (in ticks) in various power states
system.ruby.network.int_links8.dst_cred_bridge.power_state.pwrStateResidencyTicks::UNDEFINED       100000                       # Cumulative time (in ticks) in various power states
system.ruby.network.int_links8.dst_net_bridge.power_state.pwrStateResidencyTicks::UNDEFINED       100000                       # Cumulative time (in ticks) in various power states
system.ruby.network.int_links8.network_link.power_state.pwrStateResidencyTicks::UNDEFINED       100000                       # Cumulative time (in ticks) in various power states
system.ruby.network.int_links8.src_cred_bridge.power_state.pwrStateResidencyTicks::UNDEFINED       100000                       # Cumulative time (in ticks) in various power states
system.ruby.network.int_links8.src_net_bridge.power_state.pwrStateResidencyTicks::UNDEFINED       100000                       # Cumulative time (in ticks) in various power states
system.ruby.network.int_links9.credit_link.power_state.pwrStateResidencyTicks::UNDEFINED       100000                       # Cumulative time (in ticks) in various power states
system.ruby.network.int_links9.dst_cred_bridge.power_state.pwrStateResidencyTicks::UNDEFINED       100000                       # Cumulative time (in ticks) in various power states
system.ruby.network.int_links9.dst_net_bridge.power_state.pwrStateResidencyTicks::UNDEFINED       100000                       # Cumulative time (in ticks) in various power states
system.ruby.network.int_links9.network_link.power_state.pwrStateResidencyTicks::UNDEFINED       100000                       # Cumulative time (in ticks) in various power states
system.ruby.network.int_links9.src_cred_bridge.power_state.pwrStateResidencyTicks::UNDEFINED       100000                       # Cumulative time (in ticks) in various power states
system.ruby.network.int_links9.src_net_bridge.power_state.pwrStateResidencyTicks::UNDEFINED       100000                       # Cumulative time (in ticks) in various power states
system.ruby.network.netifs0.power_state.pwrStateResidencyTicks::UNDEFINED       100000                       # Cumulative time (in ticks) in various power states
system.ruby.network.netifs1.power_state.pwrStateResidencyTicks::UNDEFINED       100000                       # Cumulative time (in ticks) in various power states
system.ruby.network.netifs10.power_state.pwrStateResidencyTicks::UNDEFINED       100000                       # Cumulative time (in ticks) in various power states
system.ruby.network.netifs11.power_state.pwrStateResidencyTicks::UNDEFINED       100000                       # Cumulative time (in ticks) in various power states
system.ruby.network.netifs12.power_state.pwrStateResidencyTicks::UNDEFINED       100000                       # Cumulative time (in ticks) in various power states
system.ruby.network.netifs13.power_state.pwrStateResidencyTicks::UNDEFINED       100000                       # Cumulative time (in ticks) in various power states
system.ruby.network.netifs14.power_state.pwrStateResidencyTicks::UNDEFINED       100000                       # Cumulative time (in ticks) in various power states
system.ruby.network.netifs15.power_state.pwrStateResidencyTicks::UNDEFINED       100000                       # Cumulative time (in ticks) in various power states
system.ruby.network.netifs16.power_state.pwrStateResidencyTicks::UNDEFINED       100000                       # Cumulative time (in ticks) in various power states
system.ruby.network.netifs17.power_state.pwrStateResidencyTicks::UNDEFINED       100000                       # Cumulative time (in ticks) in various power states
system.ruby.network.netifs18.power_state.pwrStateResidencyTicks::UNDEFINED       100000                       # Cumulative time (in ticks) in various power states
system.ruby.network.netifs19.power_state.pwrStateResidencyTicks::UNDEFINED       100000                       # Cumulative time (in ticks) in various power states
system.ruby.network.netifs2.power_state.pwrStateResidencyTicks::UNDEFINED       100000                       # Cumulative time (in ticks) in various power states
system.ruby.network.netifs20.power_state.pwrStateResidencyTicks::UNDEFINED       100000                       # Cumulative time (in ticks) in various power states
system.ruby.network.netifs21.power_state.pwrStateResidencyTicks::UNDEFINED       100000                       # Cumulative time (in ticks) in various power states
system.ruby.network.netifs22.power_state.pwrStateResidencyTicks::UNDEFINED       100000                       # Cumulative time (in ticks) in various power states
system.ruby.network.netifs23.power_state.pwrStateResidencyTicks::UNDEFINED       100000                       # Cumulative time (in ticks) in various power states
system.ruby.network.netifs24.power_state.pwrStateResidencyTicks::UNDEFINED       100000                       # Cumulative time (in ticks) in various power states
system.ruby.network.netifs25.power_state.pwrStateResidencyTicks::UNDEFINED       100000                       # Cumulative time (in ticks) in various power states
system.ruby.network.netifs26.power_state.pwrStateResidencyTicks::UNDEFINED       100000                       # Cumulative time (in ticks) in various power states
system.ruby.network.netifs27.power_state.pwrStateResidencyTicks::UNDEFINED       100000                       # Cumulative time (in ticks) in various power states
system.ruby.network.netifs28.power_state.pwrStateResidencyTicks::UNDEFINED       100000                       # Cumulative time (in ticks) in various power states
system.ruby.network.netifs29.power_state.pwrStateResidencyTicks::UNDEFINED       100000                       # Cumulative time (in ticks) in various power states
system.ruby.network.netifs3.power_state.pwrStateResidencyTicks::UNDEFINED       100000                       # Cumulative time (in ticks) in various power states
system.ruby.network.netifs30.power_state.pwrStateResidencyTicks::UNDEFINED       100000                       # Cumulative time (in ticks) in various power states
system.ruby.network.netifs31.power_state.pwrStateResidencyTicks::UNDEFINED       100000                       # Cumulative time (in ticks) in various power states
system.ruby.network.netifs4.power_state.pwrStateResidencyTicks::UNDEFINED       100000                       # Cumulative time (in ticks) in various power states
system.ruby.network.netifs5.power_state.pwrStateResidencyTicks::UNDEFINED       100000                       # Cumulative time (in ticks) in various power states
system.ruby.network.netifs6.power_state.pwrStateResidencyTicks::UNDEFINED       100000                       # Cumulative time (in ticks) in various power states
system.ruby.network.netifs7.power_state.pwrStateResidencyTicks::UNDEFINED       100000                       # Cumulative time (in ticks) in various power states
system.ruby.network.netifs8.power_state.pwrStateResidencyTicks::UNDEFINED       100000                       # Cumulative time (in ticks) in various power states
system.ruby.network.netifs9.power_state.pwrStateResidencyTicks::UNDEFINED       100000                       # Cumulative time (in ticks) in various power states
system.ruby.network.power_state.pwrStateResidencyTicks::UNDEFINED       100000                       # Cumulative time (in ticks) in various power states
system.ruby.network.routers0.power_state.pwrStateResidencyTicks::UNDEFINED       100000                       # Cumulative time (in ticks) in various power states
system.ruby.network.routers1.power_state.pwrStateResidencyTicks::UNDEFINED       100000                       # Cumulative time (in ticks) in various power states
system.ruby.network.routers10.power_state.pwrStateResidencyTicks::UNDEFINED       100000                       # Cumulative time (in ticks) in various power states
system.ruby.network.routers11.power_state.pwrStateResidencyTicks::UNDEFINED       100000                       # Cumulative time (in ticks) in various power states
system.ruby.network.routers12.power_state.pwrStateResidencyTicks::UNDEFINED       100000                       # Cumulative time (in ticks) in various power states
system.ruby.network.routers13.power_state.pwrStateResidencyTicks::UNDEFINED       100000                       # Cumulative time (in ticks) in various power states
system.ruby.network.routers14.power_state.pwrStateResidencyTicks::UNDEFINED       100000                       # Cumulative time (in ticks) in various power states
system.ruby.network.routers15.power_state.pwrStateResidencyTicks::UNDEFINED       100000                       # Cumulative time (in ticks) in various power states
system.ruby.network.routers2.power_state.pwrStateResidencyTicks::UNDEFINED       100000                       # Cumulative time (in ticks) in various power states
system.ruby.network.routers3.power_state.pwrStateResidencyTicks::UNDEFINED       100000                       # Cumulative time (in ticks) in various power states
system.ruby.network.routers4.power_state.pwrStateResidencyTicks::UNDEFINED       100000                       # Cumulative time (in ticks) in various power states
system.ruby.network.routers5.power_state.pwrStateResidencyTicks::UNDEFINED       100000                       # Cumulative time (in ticks) in various power states
system.ruby.network.routers6.power_state.pwrStateResidencyTicks::UNDEFINED       100000                       # Cumulative time (in ticks) in various power states
system.ruby.network.routers7.power_state.pwrStateResidencyTicks::UNDEFINED       100000                       # Cumulative time (in ticks) in various power states
system.ruby.network.routers8.power_state.pwrStateResidencyTicks::UNDEFINED       100000                       # Cumulative time (in ticks) in various power states
system.ruby.network.routers9.power_state.pwrStateResidencyTicks::UNDEFINED       100000                       # Cumulative time (in ticks) in various power states
system.ruby.power_state.pwrStateResidencyTicks::UNDEFINED       100000                       # Cumulative time (in ticks) in various power states
system.sys_port_proxy.power_state.pwrStateResidencyTicks::UNDEFINED       100000                       # Cumulative time (in ticks) in various power states
system.voltage_domain.voltage                       1                       # Voltage in Volts

---------- End Simulation Statistics   ----------
