
---------- Begin Simulation Statistics ----------
final_tick                                     100000                       # Number of ticks from beginning of simulation (restored from checkpoints and never reset)
host_mem_usage                                 784812                       # Number of bytes of host memory used
host_seconds                                    72.68                       # Real time elapsed on the host
host_tick_rate                                   1376                       # Simulator tick rate (ticks/s)
sim_freq                                 1000000000000                       # Frequency of simulated ticks
sim_seconds                                  0.000000                       # Number of seconds simulated
sim_ticks                                      100000                       # Number of ticks simulated
system.ruby.Directory.incomplete_times_seqr            5                      
system.ruby.Directory.miss_latency_hist_seqr.first_response_to_completion::bucket_size           32                      
system.ruby.Directory.miss_latency_hist_seqr.first_response_to_completion::max_bucket          319                      
system.ruby.Directory.miss_latency_hist_seqr.first_response_to_completion::samples            1                      
system.ruby.Directory.miss_latency_hist_seqr.first_response_to_completion::mean          177                      
system.ruby.Directory.miss_latency_hist_seqr.first_response_to_completion::gmean   177.000000                      
system.ruby.Directory.miss_latency_hist_seqr.first_response_to_completion::stdev          nan                      
system.ruby.Directory.miss_latency_hist_seqr.first_response_to_completion |           0      0.00%      0.00% |           0      0.00%      0.00% |           0      0.00%      0.00% |           0      0.00%      0.00% |           0      0.00%      0.00% |           1    100.00%    100.00% |           0      0.00%    100.00% |           0      0.00%    100.00% |           0      0.00%    100.00% |           0      0.00%    100.00%
system.ruby.Directory.miss_latency_hist_seqr.first_response_to_completion::total            1                      
system.ruby.Directory.miss_latency_hist_seqr.forward_to_first_response::bucket_size            1                      
system.ruby.Directory.miss_latency_hist_seqr.forward_to_first_response::max_bucket            9                      
system.ruby.Directory.miss_latency_hist_seqr.forward_to_first_response::samples            1                      
system.ruby.Directory.miss_latency_hist_seqr.forward_to_first_response::stdev          nan                      
system.ruby.Directory.miss_latency_hist_seqr.forward_to_first_response |           1    100.00%    100.00% |           0      0.00%    100.00% |           0      0.00%    100.00% |           0      0.00%    100.00% |           0      0.00%    100.00% |           0      0.00%    100.00% |           0      0.00%    100.00% |           0      0.00%    100.00% |           0      0.00%    100.00% |           0      0.00%    100.00%
system.ruby.Directory.miss_latency_hist_seqr.forward_to_first_response::total            1                      
system.ruby.Directory.miss_latency_hist_seqr.initial_to_forward::bucket_size            1                      
system.ruby.Directory.miss_latency_hist_seqr.initial_to_forward::max_bucket            9                      
system.ruby.Directory.miss_latency_hist_seqr.initial_to_forward::samples            1                      
system.ruby.Directory.miss_latency_hist_seqr.initial_to_forward::stdev          nan                      
system.ruby.Directory.miss_latency_hist_seqr.initial_to_forward |           1    100.00%    100.00% |           0      0.00%    100.00% |           0      0.00%    100.00% |           0      0.00%    100.00% |           0      0.00%    100.00% |           0      0.00%    100.00% |           0      0.00%    100.00% |           0      0.00%    100.00% |           0      0.00%    100.00% |           0      0.00%    100.00%
system.ruby.Directory.miss_latency_hist_seqr.initial_to_forward::total            1                      
system.ruby.Directory.miss_latency_hist_seqr.issue_to_initial_request::bucket_size            1                      
system.ruby.Directory.miss_latency_hist_seqr.issue_to_initial_request::max_bucket            9                      
system.ruby.Directory.miss_latency_hist_seqr.issue_to_initial_request::samples            1                      
system.ruby.Directory.miss_latency_hist_seqr.issue_to_initial_request::stdev          nan                      
system.ruby.Directory.miss_latency_hist_seqr.issue_to_initial_request |           1    100.00%    100.00% |           0      0.00%    100.00% |           0      0.00%    100.00% |           0      0.00%    100.00% |           0      0.00%    100.00% |           0      0.00%    100.00% |           0      0.00%    100.00% |           0      0.00%    100.00% |           0      0.00%    100.00% |           0      0.00%    100.00%
system.ruby.Directory.miss_latency_hist_seqr.issue_to_initial_request::total            1                      
system.ruby.Directory.miss_mach_latency_hist_seqr::bucket_size           32                      
system.ruby.Directory.miss_mach_latency_hist_seqr::max_bucket          319                      
system.ruby.Directory.miss_mach_latency_hist_seqr::samples            6                      
system.ruby.Directory.miss_mach_latency_hist_seqr::mean    29.500000                      
system.ruby.Directory.miss_mach_latency_hist_seqr::stdev    72.259947                      
system.ruby.Directory.miss_mach_latency_hist_seqr |           5     83.33%     83.33% |           0      0.00%     83.33% |           0      0.00%     83.33% |           0      0.00%     83.33% |           0      0.00%     83.33% |           1     16.67%    100.00% |           0      0.00%    100.00% |           0      0.00%    100.00% |           0      0.00%    100.00% |           0      0.00%    100.00%
system.ruby.Directory.miss_mach_latency_hist_seqr::total            6                      
system.ruby.Directory_Controller.GETX    |           1      8.33%      8.33% |           0      0.00%      8.33% |           0      0.00%      8.33% |           0      0.00%      8.33% |           0      0.00%      8.33% |           1      8.33%     16.67% |           1      8.33%     25.00% |           1      8.33%     33.33% |           1      8.33%     41.67% |           1      8.33%     50.00% |           1      8.33%     58.33% |           1      8.33%     66.67% |           1      8.33%     75.00% |           1      8.33%     83.33% |           1      8.33%     91.67% |           1      8.33%    100.00%
system.ruby.Directory_Controller.GETX::total           12                      
system.ruby.Directory_Controller.I.GETX  |           1      8.33%      8.33% |           0      0.00%      8.33% |           0      0.00%      8.33% |           0      0.00%      8.33% |           0      0.00%      8.33% |           1      8.33%     16.67% |           1      8.33%     25.00% |           1      8.33%     33.33% |           1      8.33%     41.67% |           1      8.33%     50.00% |           1      8.33%     58.33% |           1      8.33%     66.67% |           1      8.33%     75.00% |           1      8.33%     83.33% |           1      8.33%     91.67% |           1      8.33%    100.00%
system.ruby.Directory_Controller.I.GETX::total           12                      
system.ruby.Directory_Controller.IM.Memory_Data |           1     10.00%     10.00% |           0      0.00%     10.00% |           0      0.00%     10.00% |           0      0.00%     10.00% |           0      0.00%     10.00% |           0      0.00%     10.00% |           0      0.00%     10.00% |           1     10.00%     20.00% |           1     10.00%     30.00% |           1     10.00%     40.00% |           1     10.00%     50.00% |           1     10.00%     60.00% |           1     10.00%     70.00% |           1     10.00%     80.00% |           1     10.00%     90.00% |           1     10.00%    100.00%
system.ruby.Directory_Controller.IM.Memory_Data::total           10                      
system.ruby.Directory_Controller.Memory_Data |           1     10.00%     10.00% |           0      0.00%     10.00% |           0      0.00%     10.00% |           0      0.00%     10.00% |           0      0.00%     10.00% |           0      0.00%     10.00% |           0      0.00%     10.00% |           1     10.00%     20.00% |           1     10.00%     30.00% |           1     10.00%     40.00% |           1     10.00%     50.00% |           1     10.00%     60.00% |           1     10.00%     70.00% |           1     10.00%     80.00% |           1     10.00%     90.00% |           1     10.00%    100.00%
system.ruby.Directory_Controller.Memory_Data::total           10                      
system.ruby.IFETCH.Directory.miss_type_mach_latency_hist_seqr::bucket_size           32                      
system.ruby.IFETCH.Directory.miss_type_mach_latency_hist_seqr::max_bucket          319                      
system.ruby.IFETCH.Directory.miss_type_mach_latency_hist_seqr::samples            3                      
system.ruby.IFETCH.Directory.miss_type_mach_latency_hist_seqr::mean           59                      
system.ruby.IFETCH.Directory.miss_type_mach_latency_hist_seqr::stdev   102.190998                      
system.ruby.IFETCH.Directory.miss_type_mach_latency_hist_seqr |           2     66.67%     66.67% |           0      0.00%     66.67% |           0      0.00%     66.67% |           0      0.00%     66.67% |           0      0.00%     66.67% |           1     33.33%    100.00% |           0      0.00%    100.00% |           0      0.00%    100.00% |           0      0.00%    100.00% |           0      0.00%    100.00%
system.ruby.IFETCH.Directory.miss_type_mach_latency_hist_seqr::total            3                      
system.ruby.IFETCH.hit_latency_hist_seqr::bucket_size            1                      
system.ruby.IFETCH.hit_latency_hist_seqr::max_bucket            9                      
system.ruby.IFETCH.hit_latency_hist_seqr::samples            1                      
system.ruby.IFETCH.hit_latency_hist_seqr::stdev          nan                      
system.ruby.IFETCH.hit_latency_hist_seqr |           1    100.00%    100.00% |           0      0.00%    100.00% |           0      0.00%    100.00% |           0      0.00%    100.00% |           0      0.00%    100.00% |           0      0.00%    100.00% |           0      0.00%    100.00% |           0      0.00%    100.00% |           0      0.00%    100.00% |           0      0.00%    100.00%
system.ruby.IFETCH.hit_latency_hist_seqr::total            1                      
system.ruby.IFETCH.latency_hist_seqr::bucket_size           32                      
system.ruby.IFETCH.latency_hist_seqr::max_bucket          319                      
system.ruby.IFETCH.latency_hist_seqr::samples            4                      
system.ruby.IFETCH.latency_hist_seqr::mean    44.250000                      
system.ruby.IFETCH.latency_hist_seqr::stdev    88.500000                      
system.ruby.IFETCH.latency_hist_seqr     |           3     75.00%     75.00% |           0      0.00%     75.00% |           0      0.00%     75.00% |           0      0.00%     75.00% |           0      0.00%     75.00% |           1     25.00%    100.00% |           0      0.00%    100.00% |           0      0.00%    100.00% |           0      0.00%    100.00% |           0      0.00%    100.00%
system.ruby.IFETCH.latency_hist_seqr::total            4                      
system.ruby.IFETCH.miss_latency_hist_seqr::bucket_size           32                      
system.ruby.IFETCH.miss_latency_hist_seqr::max_bucket          319                      
system.ruby.IFETCH.miss_latency_hist_seqr::samples            3                      
system.ruby.IFETCH.miss_latency_hist_seqr::mean           59                      
system.ruby.IFETCH.miss_latency_hist_seqr::stdev   102.190998                      
system.ruby.IFETCH.miss_latency_hist_seqr |           2     66.67%     66.67% |           0      0.00%     66.67% |           0      0.00%     66.67% |           0      0.00%     66.67% |           0      0.00%     66.67% |           1     33.33%    100.00% |           0      0.00%    100.00% |           0      0.00%    100.00% |           0      0.00%    100.00% |           0      0.00%    100.00%
system.ruby.IFETCH.miss_latency_hist_seqr::total            3                      
system.ruby.L1Cache_Controller.Data      |           1     16.67%     16.67% |           0      0.00%     16.67% |           0      0.00%     16.67% |           0      0.00%     16.67% |           0      0.00%     16.67% |           0      0.00%     16.67% |           0      0.00%     16.67% |           0      0.00%     16.67% |           0      0.00%     16.67% |           0      0.00%     16.67% |           0      0.00%     16.67% |           1     16.67%     33.33% |           1     16.67%     50.00% |           1     16.67%     66.67% |           1     16.67%     83.33% |           1     16.67%    100.00%
system.ruby.L1Cache_Controller.Data::total            6                      
system.ruby.L1Cache_Controller.I.Ifetch  |           0      0.00%      0.00% |           0      0.00%      0.00% |           1     14.29%     14.29% |           0      0.00%     14.29% |           1     14.29%     28.57% |           0      0.00%     28.57% |           0      0.00%     28.57% |           1     14.29%     42.86% |           0      0.00%     42.86% |           1     14.29%     57.14% |           0      0.00%     57.14% |           1     14.29%     71.43% |           1     14.29%     85.71% |           1     14.29%    100.00% |           0      0.00%    100.00% |           0      0.00%    100.00%
system.ruby.L1Cache_Controller.I.Ifetch::total            7                      
system.ruby.L1Cache_Controller.I.Load    |           1     20.00%     20.00% |           0      0.00%     20.00% |           0      0.00%     20.00% |           0      0.00%     20.00% |           0      0.00%     20.00% |           0      0.00%     20.00% |           1     20.00%     40.00% |           0      0.00%     40.00% |           1     20.00%     60.00% |           0      0.00%     60.00% |           1     20.00%     80.00% |           0      0.00%     80.00% |           0      0.00%     80.00% |           0      0.00%     80.00% |           1     20.00%    100.00% |           0      0.00%    100.00%
system.ruby.L1Cache_Controller.I.Load::total            5                      
system.ruby.L1Cache_Controller.I.Store   |           0      0.00%      0.00% |           1     25.00%     25.00% |           0      0.00%     25.00% |           1     25.00%     50.00% |           0      0.00%     50.00% |           1     25.00%     75.00% |           0      0.00%     75.00% |           0      0.00%     75.00% |           0      0.00%     75.00% |           0      0.00%     75.00% |           0      0.00%     75.00% |           0      0.00%     75.00% |           0      0.00%     75.00% |           0      0.00%     75.00% |           0      0.00%     75.00% |           1     25.00%    100.00%
system.ruby.L1Cache_Controller.I.Store::total            4                      
system.ruby.L1Cache_Controller.IM.Data   |           0      0.00%      0.00% |           0      0.00%      0.00% |           0      0.00%      0.00% |           0      0.00%      0.00% |           0      0.00%      0.00% |           0      0.00%      0.00% |           0      0.00%      0.00% |           0      0.00%      0.00% |           0      0.00%      0.00% |           0      0.00%      0.00% |           0      0.00%      0.00% |           0      0.00%      0.00% |           0      0.00%      0.00% |           0      0.00%      0.00% |           0      0.00%      0.00% |           1    100.00%    100.00%
system.ruby.L1Cache_Controller.IM.Data::total            1                      
system.ruby.L1Cache_Controller.IS.Data   |           1     20.00%     20.00% |           0      0.00%     20.00% |           0      0.00%     20.00% |           0      0.00%     20.00% |           0      0.00%     20.00% |           0      0.00%     20.00% |           0      0.00%     20.00% |           0      0.00%     20.00% |           0      0.00%     20.00% |           0      0.00%     20.00% |           0      0.00%     20.00% |           1     20.00%     40.00% |           1     20.00%     60.00% |           1     20.00%     80.00% |           1     20.00%    100.00% |           0      0.00%    100.00%
system.ruby.L1Cache_Controller.IS.Data::total            5                      
system.ruby.L1Cache_Controller.Ifetch    |           0      0.00%      0.00% |           0      0.00%      0.00% |           1     12.50%     12.50% |           0      0.00%     12.50% |           1     12.50%     25.00% |           0      0.00%     25.00% |           0      0.00%     25.00% |           1     12.50%     37.50% |           0      0.00%     37.50% |           1     12.50%     50.00% |           0      0.00%     50.00% |           1     12.50%     62.50% |           2     25.00%     87.50% |           1     12.50%    100.00% |           0      0.00%    100.00% |           0      0.00%    100.00%
system.ruby.L1Cache_Controller.Ifetch::total            8                      
system.ruby.L1Cache_Controller.Load      |           1     16.67%     16.67% |           0      0.00%     16.67% |           0      0.00%     16.67% |           0      0.00%     16.67% |           0      0.00%     16.67% |           0      0.00%     16.67% |           1     16.67%     33.33% |           0      0.00%     33.33% |           1     16.67%     50.00% |           0      0.00%     50.00% |           1     16.67%     66.67% |           0      0.00%     66.67% |           0      0.00%     66.67% |           0      0.00%     66.67% |           2     33.33%    100.00% |           0      0.00%    100.00%
system.ruby.L1Cache_Controller.Load::total            6                      
system.ruby.L1Cache_Controller.M.Ifetch  |           0      0.00%      0.00% |           0      0.00%      0.00% |           0      0.00%      0.00% |           0      0.00%      0.00% |           0      0.00%      0.00% |           0      0.00%      0.00% |           0      0.00%      0.00% |           0      0.00%      0.00% |           0      0.00%      0.00% |           0      0.00%      0.00% |           0      0.00%      0.00% |           0      0.00%      0.00% |           1    100.00%    100.00% |           0      0.00%    100.00% |           0      0.00%    100.00% |           0      0.00%    100.00%
system.ruby.L1Cache_Controller.M.Ifetch::total            1                      
system.ruby.L1Cache_Controller.M.Load    |           0      0.00%      0.00% |           0      0.00%      0.00% |           0      0.00%      0.00% |           0      0.00%      0.00% |           0      0.00%      0.00% |           0      0.00%      0.00% |           0      0.00%      0.00% |           0      0.00%      0.00% |           0      0.00%      0.00% |           0      0.00%      0.00% |           0      0.00%      0.00% |           0      0.00%      0.00% |           0      0.00%      0.00% |           0      0.00%      0.00% |           1    100.00%    100.00% |           0      0.00%    100.00%
system.ruby.L1Cache_Controller.M.Load::total            1                      
system.ruby.L1Cache_Controller.M.Store   |           3     37.50%     37.50% |           0      0.00%     37.50% |           0      0.00%     37.50% |           0      0.00%     37.50% |           0      0.00%     37.50% |           0      0.00%     37.50% |           0      0.00%     37.50% |           0      0.00%     37.50% |           0      0.00%     37.50% |           0      0.00%     37.50% |           0      0.00%     37.50% |           2     25.00%     62.50% |           1     12.50%     75.00% |           0      0.00%     75.00% |           1     12.50%     87.50% |           1     12.50%    100.00%
system.ruby.L1Cache_Controller.M.Store::total            8                      
system.ruby.L1Cache_Controller.Store     |           3     25.00%     25.00% |           1      8.33%     33.33% |           0      0.00%     33.33% |           1      8.33%     41.67% |           0      0.00%     41.67% |           1      8.33%     50.00% |           0      0.00%     50.00% |           0      0.00%     50.00% |           0      0.00%     50.00% |           0      0.00%     50.00% |           0      0.00%     50.00% |           2     16.67%     66.67% |           1      8.33%     75.00% |           0      0.00%     75.00% |           1      8.33%     83.33% |           2     16.67%    100.00%
system.ruby.L1Cache_Controller.Store::total           12                      
system.ruby.LD.Directory.miss_type_mach_latency_hist_seqr::bucket_size            1                      
system.ruby.LD.Directory.miss_type_mach_latency_hist_seqr::max_bucket            9                      
system.ruby.LD.Directory.miss_type_mach_latency_hist_seqr::samples            2                      
system.ruby.LD.Directory.miss_type_mach_latency_hist_seqr |           2    100.00%    100.00% |           0      0.00%    100.00% |           0      0.00%    100.00% |           0      0.00%    100.00% |           0      0.00%    100.00% |           0      0.00%    100.00% |           0      0.00%    100.00% |           0      0.00%    100.00% |           0      0.00%    100.00% |           0      0.00%    100.00%
system.ruby.LD.Directory.miss_type_mach_latency_hist_seqr::total            2                      
system.ruby.LD.hit_latency_hist_seqr::bucket_size            1                      
system.ruby.LD.hit_latency_hist_seqr::max_bucket            9                      
system.ruby.LD.hit_latency_hist_seqr::samples            1                      
system.ruby.LD.hit_latency_hist_seqr::stdev          nan                      
system.ruby.LD.hit_latency_hist_seqr     |           1    100.00%    100.00% |           0      0.00%    100.00% |           0      0.00%    100.00% |           0      0.00%    100.00% |           0      0.00%    100.00% |           0      0.00%    100.00% |           0      0.00%    100.00% |           0      0.00%    100.00% |           0      0.00%    100.00% |           0      0.00%    100.00%
system.ruby.LD.hit_latency_hist_seqr::total            1                      
system.ruby.LD.latency_hist_seqr::bucket_size            1                      
system.ruby.LD.latency_hist_seqr::max_bucket            9                      
system.ruby.LD.latency_hist_seqr::samples            3                      
system.ruby.LD.latency_hist_seqr         |           3    100.00%    100.00% |           0      0.00%    100.00% |           0      0.00%    100.00% |           0      0.00%    100.00% |           0      0.00%    100.00% |           0      0.00%    100.00% |           0      0.00%    100.00% |           0      0.00%    100.00% |           0      0.00%    100.00% |           0      0.00%    100.00%
system.ruby.LD.latency_hist_seqr::total             3                      
system.ruby.LD.miss_latency_hist_seqr::bucket_size            1                      
system.ruby.LD.miss_latency_hist_seqr::max_bucket            9                      
system.ruby.LD.miss_latency_hist_seqr::samples            2                      
system.ruby.LD.miss_latency_hist_seqr    |           2    100.00%    100.00% |           0      0.00%    100.00% |           0      0.00%    100.00% |           0      0.00%    100.00% |           0      0.00%    100.00% |           0      0.00%    100.00% |           0      0.00%    100.00% |           0      0.00%    100.00% |           0      0.00%    100.00% |           0      0.00%    100.00%
system.ruby.LD.miss_latency_hist_seqr::total            2                      
system.ruby.ST.Directory.miss_type_mach_latency_hist_seqr::bucket_size            1                      
system.ruby.ST.Directory.miss_type_mach_latency_hist_seqr::max_bucket            9                      
system.ruby.ST.Directory.miss_type_mach_latency_hist_seqr::samples            1                      
system.ruby.ST.Directory.miss_type_mach_latency_hist_seqr::stdev          nan                      
system.ruby.ST.Directory.miss_type_mach_latency_hist_seqr |           1    100.00%    100.00% |           0      0.00%    100.00% |           0      0.00%    100.00% |           0      0.00%    100.00% |           0      0.00%    100.00% |           0      0.00%    100.00% |           0      0.00%    100.00% |           0      0.00%    100.00% |           0      0.00%    100.00% |           0      0.00%    100.00%
system.ruby.ST.Directory.miss_type_mach_latency_hist_seqr::total            1                      
system.ruby.ST.hit_latency_hist_seqr::bucket_size            1                      
system.ruby.ST.hit_latency_hist_seqr::max_bucket            9                      
system.ruby.ST.hit_latency_hist_seqr::samples            8                      
system.ruby.ST.hit_latency_hist_seqr     |           8    100.00%    100.00% |           0      0.00%    100.00% |           0      0.00%    100.00% |           0      0.00%    100.00% |           0      0.00%    100.00% |           0      0.00%    100.00% |           0      0.00%    100.00% |           0      0.00%    100.00% |           0      0.00%    100.00% |           0      0.00%    100.00%
system.ruby.ST.hit_latency_hist_seqr::total            8                      
system.ruby.ST.latency_hist_seqr::bucket_size            1                      
system.ruby.ST.latency_hist_seqr::max_bucket            9                      
system.ruby.ST.latency_hist_seqr::samples            9                      
system.ruby.ST.latency_hist_seqr         |           9    100.00%    100.00% |           0      0.00%    100.00% |           0      0.00%    100.00% |           0      0.00%    100.00% |           0      0.00%    100.00% |           0      0.00%    100.00% |           0      0.00%    100.00% |           0      0.00%    100.00% |           0      0.00%    100.00% |           0      0.00%    100.00%
system.ruby.ST.latency_hist_seqr::total             9                      
system.ruby.ST.miss_latency_hist_seqr::bucket_size            1                      
system.ruby.ST.miss_latency_hist_seqr::max_bucket            9                      
system.ruby.ST.miss_latency_hist_seqr::samples            1                      
system.ruby.ST.miss_latency_hist_seqr::stdev          nan                      
system.ruby.ST.miss_latency_hist_seqr    |           1    100.00%    100.00% |           0      0.00%    100.00% |           0      0.00%    100.00% |           0      0.00%    100.00% |           0      0.00%    100.00% |           0      0.00%    100.00% |           0      0.00%    100.00% |           0      0.00%    100.00% |           0      0.00%    100.00% |           0      0.00%    100.00%
system.ruby.ST.miss_latency_hist_seqr::total            1                      
system.ruby.delayHist::bucket_size                  8                       # delay histogram for all message
system.ruby.delayHist::max_bucket                  79                       # delay histogram for all message
system.ruby.delayHist::samples                      6                       # delay histogram for all message
system.ruby.delayHist::mean                 23.500000                       # delay histogram for all message
system.ruby.delayHist::gmean                18.632590                       # delay histogram for all message
system.ruby.delayHist::stdev                17.603977                       # delay histogram for all message
system.ruby.delayHist                    |           0      0.00%      0.00% |           3     50.00%     50.00% |           1     16.67%     66.67% |           0      0.00%     66.67% |           0      0.00%     66.67% |           1     16.67%     83.33% |           1     16.67%    100.00% |           0      0.00%    100.00% |           0      0.00%    100.00% |           0      0.00%    100.00% # delay histogram for all message
system.ruby.delayHist::total                        6                       # delay histogram for all message
system.ruby.delayVCHist.vnet_1::bucket_size            8                       # delay histogram for vnet_1
system.ruby.delayVCHist.vnet_1::max_bucket           79                       # delay histogram for vnet_1
system.ruby.delayVCHist.vnet_1::samples             6                       # delay histogram for vnet_1
system.ruby.delayVCHist.vnet_1::mean        23.500000                       # delay histogram for vnet_1
system.ruby.delayVCHist.vnet_1::gmean       18.632590                       # delay histogram for vnet_1
system.ruby.delayVCHist.vnet_1::stdev       17.603977                       # delay histogram for vnet_1
system.ruby.delayVCHist.vnet_1           |           0      0.00%      0.00% |           3     50.00%     50.00% |           1     16.67%     66.67% |           0      0.00%     66.67% |           0      0.00%     66.67% |           1     16.67%     83.33% |           1     16.67%    100.00% |           0      0.00%    100.00% |           0      0.00%    100.00% |           0      0.00%    100.00% # delay histogram for vnet_1
system.ruby.delayVCHist.vnet_1::total               6                       # delay histogram for vnet_1
system.ruby.dir_cntrl0.requestToDir.avg_buf_msgs     0.005000                       # Average number of messages in buffer
system.ruby.dir_cntrl0.requestToDir.avg_stall_time  2905.005950                       # Average number of cycles messages are stalled in this MB
system.ruby.dir_cntrl0.requestToMemory.avg_buf_msgs     0.005000                       # Average number of messages in buffer
system.ruby.dir_cntrl0.requestToMemory.avg_stall_time   412.500875                       # Average number of cycles messages are stalled in this MB
system.ruby.dir_cntrl0.responseFromDir.avg_buf_msgs     0.005000                       # Average number of messages in buffer
system.ruby.dir_cntrl0.responseFromDir.avg_stall_time   145.003550                       # Average number of cycles messages are stalled in this MB
system.ruby.dir_cntrl0.responseFromMemory.avg_buf_msgs     0.005000                       # Average number of messages in buffer
system.ruby.dir_cntrl0.responseFromMemory.avg_stall_time   147.503525                       # Average number of cycles messages are stalled in this MB
system.ruby.dir_cntrl10.requestToDir.avg_buf_msgs     0.005000                       # Average number of messages in buffer
system.ruby.dir_cntrl10.requestToDir.avg_stall_time  8265.012350                       # Average number of cycles messages are stalled in this MB
system.ruby.dir_cntrl10.requestToMemory.avg_buf_msgs     0.005000                       # Average number of messages in buffer
system.ruby.dir_cntrl10.requestToMemory.avg_stall_time   432.500675                       # Average number of cycles messages are stalled in this MB
system.ruby.dir_cntrl10.responseFromDir.avg_buf_msgs     0.005000                       # Average number of messages in buffer
system.ruby.dir_cntrl10.responseFromDir.avg_stall_time   162.503375                       # Average number of cycles messages are stalled in this MB
system.ruby.dir_cntrl10.responseFromMemory.avg_buf_msgs     0.007500                       # Average number of messages in buffer
system.ruby.dir_cntrl10.responseFromMemory.avg_stall_time   165.003350                       # Average number of cycles messages are stalled in this MB
system.ruby.dir_cntrl11.requestToDir.avg_buf_msgs     0.005000                       # Average number of messages in buffer
system.ruby.dir_cntrl11.requestToDir.avg_stall_time  5565.014350                       # Average number of cycles messages are stalled in this MB
system.ruby.dir_cntrl11.requestToMemory.avg_buf_msgs     0.005000                       # Average number of messages in buffer
system.ruby.dir_cntrl11.requestToMemory.avg_stall_time   395.001050                       # Average number of cycles messages are stalled in this MB
system.ruby.dir_cntrl11.responseFromDir.avg_buf_msgs     0.005000                       # Average number of messages in buffer
system.ruby.dir_cntrl11.responseFromDir.avg_stall_time   127.503725                       # Average number of cycles messages are stalled in this MB
system.ruby.dir_cntrl11.responseFromMemory.avg_buf_msgs     0.005000                       # Average number of messages in buffer
system.ruby.dir_cntrl11.responseFromMemory.avg_stall_time   130.003700                       # Average number of cycles messages are stalled in this MB
system.ruby.dir_cntrl12.requestToDir.avg_buf_msgs     0.005000                       # Average number of messages in buffer
system.ruby.dir_cntrl12.requestToDir.avg_stall_time 13330.081699                       # Average number of cycles messages are stalled in this MB
system.ruby.dir_cntrl12.requestToMemory.avg_buf_msgs     0.005000                       # Average number of messages in buffer
system.ruby.dir_cntrl12.requestToMemory.avg_stall_time   307.501925                       # Average number of cycles messages are stalled in this MB
system.ruby.dir_cntrl12.responseFromDir.avg_buf_msgs     0.005000                       # Average number of messages in buffer
system.ruby.dir_cntrl12.responseFromDir.avg_stall_time    40.004600                       # Average number of cycles messages are stalled in this MB
system.ruby.dir_cntrl12.responseFromMemory.avg_buf_msgs     0.005000                       # Average number of messages in buffer
system.ruby.dir_cntrl12.responseFromMemory.avg_stall_time    42.504575                       # Average number of cycles messages are stalled in this MB
system.ruby.dir_cntrl13.requestToDir.avg_buf_msgs     0.005000                       # Average number of messages in buffer
system.ruby.dir_cntrl13.requestToDir.avg_stall_time 10250.022500                       # Average number of cycles messages are stalled in this MB
system.ruby.dir_cntrl13.requestToMemory.avg_buf_msgs     0.005000                       # Average number of messages in buffer
system.ruby.dir_cntrl13.requestToMemory.avg_stall_time   407.500925                       # Average number of cycles messages are stalled in this MB
system.ruby.dir_cntrl13.responseFromDir.avg_buf_msgs     0.005000                       # Average number of messages in buffer
system.ruby.dir_cntrl13.responseFromDir.avg_stall_time   140.003600                       # Average number of cycles messages are stalled in this MB
system.ruby.dir_cntrl13.responseFromMemory.avg_buf_msgs     0.005000                       # Average number of messages in buffer
system.ruby.dir_cntrl13.responseFromMemory.avg_stall_time   142.503575                       # Average number of cycles messages are stalled in this MB
system.ruby.dir_cntrl14.requestToDir.avg_buf_msgs     0.005000                       # Average number of messages in buffer
system.ruby.dir_cntrl14.requestToDir.avg_stall_time  5610.028900                       # Average number of cycles messages are stalled in this MB
system.ruby.dir_cntrl14.requestToMemory.avg_buf_msgs     0.005000                       # Average number of messages in buffer
system.ruby.dir_cntrl14.requestToMemory.avg_stall_time   327.501725                       # Average number of cycles messages are stalled in this MB
system.ruby.dir_cntrl14.responseFromDir.avg_buf_msgs     0.005000                       # Average number of messages in buffer
system.ruby.dir_cntrl14.responseFromDir.avg_stall_time    60.004400                       # Average number of cycles messages are stalled in this MB
system.ruby.dir_cntrl14.responseFromMemory.avg_buf_msgs     0.005000                       # Average number of messages in buffer
system.ruby.dir_cntrl14.responseFromMemory.avg_stall_time    62.504375                       # Average number of cycles messages are stalled in this MB
system.ruby.dir_cntrl15.requestToDir.avg_buf_msgs     0.005000                       # Average number of messages in buffer
system.ruby.dir_cntrl15.requestToDir.avg_stall_time  2905.005950                       # Average number of cycles messages are stalled in this MB
system.ruby.dir_cntrl15.requestToMemory.avg_buf_msgs     0.005000                       # Average number of messages in buffer
system.ruby.dir_cntrl15.requestToMemory.avg_stall_time   412.500875                       # Average number of cycles messages are stalled in this MB
system.ruby.dir_cntrl15.responseFromDir.avg_buf_msgs     0.005000                       # Average number of messages in buffer
system.ruby.dir_cntrl15.responseFromDir.avg_stall_time   145.003550                       # Average number of cycles messages are stalled in this MB
system.ruby.dir_cntrl15.responseFromMemory.avg_buf_msgs     0.005000                       # Average number of messages in buffer
system.ruby.dir_cntrl15.responseFromMemory.avg_stall_time   147.503525                       # Average number of cycles messages are stalled in this MB
system.ruby.dir_cntrl5.requestToDir.avg_buf_msgs     0.005000                       # Average number of messages in buffer
system.ruby.dir_cntrl5.requestToDir.avg_stall_time 13410.610894                       # Average number of cycles messages are stalled in this MB
system.ruby.dir_cntrl5.requestToMemory.avg_buf_msgs     0.005000                       # Average number of messages in buffer
system.ruby.dir_cntrl5.requestToMemory.avg_stall_time    87.504125                       # Average number of cycles messages are stalled in this MB
system.ruby.dir_cntrl6.requestToDir.avg_buf_msgs     0.005000                       # Average number of messages in buffer
system.ruby.dir_cntrl6.requestToDir.avg_stall_time  3150.868491                       # Average number of cycles messages are stalled in this MB
system.ruby.dir_cntrl6.requestToMemory.avg_buf_msgs     0.005000                       # Average number of messages in buffer
system.ruby.dir_cntrl6.requestToMemory.avg_stall_time    15.004850                       # Average number of cycles messages are stalled in this MB
system.ruby.dir_cntrl7.requestToDir.avg_buf_msgs     0.005000                       # Average number of messages in buffer
system.ruby.dir_cntrl7.requestToDir.avg_stall_time  4275.002250                       # Average number of cycles messages are stalled in this MB
system.ruby.dir_cntrl7.requestToMemory.avg_buf_msgs     0.005000                       # Average number of messages in buffer
system.ruby.dir_cntrl7.requestToMemory.avg_stall_time   472.500275                       # Average number of cycles messages are stalled in this MB
system.ruby.dir_cntrl7.responseFromDir.avg_buf_msgs     0.005000                       # Average number of messages in buffer
system.ruby.dir_cntrl7.responseFromDir.avg_stall_time   162.503375                       # Average number of cycles messages are stalled in this MB
system.ruby.dir_cntrl7.responseFromMemory.avg_buf_msgs     0.007500                       # Average number of messages in buffer
system.ruby.dir_cntrl7.responseFromMemory.avg_stall_time   165.003350                       # Average number of cycles messages are stalled in this MB
system.ruby.dir_cntrl8.requestToDir.avg_buf_msgs     0.005000                       # Average number of messages in buffer
system.ruby.dir_cntrl8.requestToDir.avg_stall_time  4140.003600                       # Average number of cycles messages are stalled in this MB
system.ruby.dir_cntrl8.requestToMemory.avg_buf_msgs     0.005000                       # Average number of messages in buffer
system.ruby.dir_cntrl8.requestToMemory.avg_stall_time   457.500425                       # Average number of cycles messages are stalled in this MB
system.ruby.dir_cntrl8.responseFromDir.avg_buf_msgs     0.005000                       # Average number of messages in buffer
system.ruby.dir_cntrl8.responseFromDir.avg_stall_time   162.503375                       # Average number of cycles messages are stalled in this MB
system.ruby.dir_cntrl8.responseFromMemory.avg_buf_msgs     0.007500                       # Average number of messages in buffer
system.ruby.dir_cntrl8.responseFromMemory.avg_stall_time   165.003350                       # Average number of cycles messages are stalled in this MB
system.ruby.dir_cntrl9.requestToDir.avg_buf_msgs     0.005000                       # Average number of messages in buffer
system.ruby.dir_cntrl9.requestToDir.avg_stall_time  5175.023250                       # Average number of cycles messages are stalled in this MB
system.ruby.dir_cntrl9.requestToMemory.avg_buf_msgs     0.005000                       # Average number of messages in buffer
system.ruby.dir_cntrl9.requestToMemory.avg_stall_time   342.501575                       # Average number of cycles messages are stalled in this MB
system.ruby.dir_cntrl9.responseFromDir.avg_buf_msgs     0.005000                       # Average number of messages in buffer
system.ruby.dir_cntrl9.responseFromDir.avg_stall_time    75.004250                       # Average number of cycles messages are stalled in this MB
system.ruby.dir_cntrl9.responseFromMemory.avg_buf_msgs     0.005000                       # Average number of messages in buffer
system.ruby.dir_cntrl9.responseFromMemory.avg_stall_time    77.504225                       # Average number of cycles messages are stalled in this MB
system.ruby.hit_latency_hist_seqr::bucket_size            1                      
system.ruby.hit_latency_hist_seqr::max_bucket            9                      
system.ruby.hit_latency_hist_seqr::samples           10                      
system.ruby.hit_latency_hist_seqr        |          10    100.00%    100.00% |           0      0.00%    100.00% |           0      0.00%    100.00% |           0      0.00%    100.00% |           0      0.00%    100.00% |           0      0.00%    100.00% |           0      0.00%    100.00% |           0      0.00%    100.00% |           0      0.00%    100.00% |           0      0.00%    100.00%
system.ruby.hit_latency_hist_seqr::total           10                      
system.ruby.l1_cntrl0.cacheMemory.demand_accesses            4                       # Number of cache demand accesses
system.ruby.l1_cntrl0.cacheMemory.demand_hits            3                       # Number of cache demand hits
system.ruby.l1_cntrl0.cacheMemory.demand_misses            1                       # Number of cache demand misses
system.ruby.l1_cntrl0.mandatoryQueue.avg_buf_msgs     0.020000                       # Average number of messages in buffer
system.ruby.l1_cntrl0.mandatoryQueue.avg_stall_time   432.500675                       # Average number of cycles messages are stalled in this MB
system.ruby.l1_cntrl0.requestFromCache.avg_buf_msgs     0.010000                       # Average number of messages in buffer
system.ruby.l1_cntrl0.requestFromCache.avg_stall_time   855.001450                       # Average number of cycles messages are stalled in this MB
system.ruby.l1_cntrl0.responseToCache.avg_buf_msgs     0.005000                       # Average number of messages in buffer
system.ruby.l1_cntrl0.responseToCache.avg_stall_time  1320.041800                       # Average number of cycles messages are stalled in this MB
system.ruby.l1_cntrl1.cacheMemory.demand_accesses            1                       # Number of cache demand accesses
system.ruby.l1_cntrl1.cacheMemory.demand_hits            0                       # Number of cache demand hits
system.ruby.l1_cntrl1.cacheMemory.demand_misses            1                       # Number of cache demand misses
system.ruby.l1_cntrl1.mandatoryQueue.avg_buf_msgs     0.005000                       # Average number of messages in buffer
system.ruby.l1_cntrl1.mandatoryQueue.avg_stall_time   367.501325                       # Average number of cycles messages are stalled in this MB
system.ruby.l1_cntrl1.requestFromCache.avg_buf_msgs     0.010000                       # Average number of messages in buffer
system.ruby.l1_cntrl1.requestFromCache.avg_stall_time   725.002750                       # Average number of cycles messages are stalled in this MB
system.ruby.l1_cntrl10.cacheMemory.demand_accesses            1                       # Number of cache demand accesses
system.ruby.l1_cntrl10.cacheMemory.demand_hits            0                       # Number of cache demand hits
system.ruby.l1_cntrl10.cacheMemory.demand_misses            1                       # Number of cache demand misses
system.ruby.l1_cntrl10.mandatoryQueue.avg_buf_msgs     0.005000                       # Average number of messages in buffer
system.ruby.l1_cntrl10.mandatoryQueue.avg_stall_time   462.500375                       # Average number of cycles messages are stalled in this MB
system.ruby.l1_cntrl10.requestFromCache.avg_buf_msgs     0.010000                       # Average number of messages in buffer
system.ruby.l1_cntrl10.requestFromCache.avg_stall_time   915.000850                       # Average number of cycles messages are stalled in this MB
system.ruby.l1_cntrl11.cacheMemory.demand_accesses            3                       # Number of cache demand accesses
system.ruby.l1_cntrl11.cacheMemory.demand_hits            2                       # Number of cache demand hits
system.ruby.l1_cntrl11.cacheMemory.demand_misses            1                       # Number of cache demand misses
system.ruby.l1_cntrl11.mandatoryQueue.avg_buf_msgs     0.015010                       # Average number of messages in buffer
system.ruby.l1_cntrl11.mandatoryQueue.avg_stall_time   497.500025                       # Average number of cycles messages are stalled in this MB
system.ruby.l1_cntrl11.requestFromCache.avg_buf_msgs     0.010000                       # Average number of messages in buffer
system.ruby.l1_cntrl11.requestFromCache.avg_stall_time   985.000150                       # Average number of cycles messages are stalled in this MB
system.ruby.l1_cntrl11.responseToCache.avg_buf_msgs     0.005000                       # Average number of messages in buffer
system.ruby.l1_cntrl11.responseToCache.avg_stall_time  2472.690273                       # Average number of cycles messages are stalled in this MB
system.ruby.l1_cntrl12.cacheMemory.demand_accesses            3                       # Number of cache demand accesses
system.ruby.l1_cntrl12.cacheMemory.demand_hits            2                       # Number of cache demand hits
system.ruby.l1_cntrl12.cacheMemory.demand_misses            1                       # Number of cache demand misses
system.ruby.l1_cntrl12.mandatoryQueue.avg_buf_msgs     0.015010                       # Average number of messages in buffer
system.ruby.l1_cntrl12.mandatoryQueue.avg_stall_time   382.501175                       # Average number of cycles messages are stalled in this MB
system.ruby.l1_cntrl12.requestFromCache.avg_buf_msgs     0.010000                       # Average number of messages in buffer
system.ruby.l1_cntrl12.requestFromCache.avg_stall_time   755.002450                       # Average number of cycles messages are stalled in this MB
system.ruby.l1_cntrl12.responseToCache.avg_buf_msgs     0.005000                       # Average number of messages in buffer
system.ruby.l1_cntrl12.responseToCache.avg_stall_time   550.094499                       # Average number of cycles messages are stalled in this MB
system.ruby.l1_cntrl13.cacheMemory.demand_accesses            1                       # Number of cache demand accesses
system.ruby.l1_cntrl13.cacheMemory.demand_hits            0                       # Number of cache demand hits
system.ruby.l1_cntrl13.cacheMemory.demand_misses            1                       # Number of cache demand misses
system.ruby.l1_cntrl13.mandatoryQueue.avg_buf_msgs     0.005010                       # Average number of messages in buffer
system.ruby.l1_cntrl13.mandatoryQueue.avg_stall_time   432.500675                       # Average number of cycles messages are stalled in this MB
system.ruby.l1_cntrl13.requestFromCache.avg_buf_msgs     0.010000                       # Average number of messages in buffer
system.ruby.l1_cntrl13.requestFromCache.avg_stall_time   855.001450                       # Average number of cycles messages are stalled in this MB
system.ruby.l1_cntrl13.responseToCache.avg_buf_msgs     0.005000                       # Average number of messages in buffer
system.ruby.l1_cntrl13.responseToCache.avg_stall_time     0.259997                       # Average number of cycles messages are stalled in this MB
system.ruby.l1_cntrl14.cacheMemory.demand_accesses            3                       # Number of cache demand accesses
system.ruby.l1_cntrl14.cacheMemory.demand_hits            2                       # Number of cache demand hits
system.ruby.l1_cntrl14.cacheMemory.demand_misses            1                       # Number of cache demand misses
system.ruby.l1_cntrl14.mandatoryQueue.avg_buf_msgs     0.015000                       # Average number of messages in buffer
system.ruby.l1_cntrl14.mandatoryQueue.avg_stall_time   472.500275                       # Average number of cycles messages are stalled in this MB
system.ruby.l1_cntrl14.requestFromCache.avg_buf_msgs     0.010000                       # Average number of messages in buffer
system.ruby.l1_cntrl14.requestFromCache.avg_stall_time   935.000650                       # Average number of cycles messages are stalled in this MB
system.ruby.l1_cntrl14.responseToCache.avg_buf_msgs     0.005000                       # Average number of messages in buffer
system.ruby.l1_cntrl14.responseToCache.avg_stall_time  1640.063599                       # Average number of cycles messages are stalled in this MB
system.ruby.l1_cntrl15.cacheMemory.demand_accesses            2                       # Number of cache demand accesses
system.ruby.l1_cntrl15.cacheMemory.demand_hits            1                       # Number of cache demand hits
system.ruby.l1_cntrl15.cacheMemory.demand_misses            1                       # Number of cache demand misses
system.ruby.l1_cntrl15.mandatoryQueue.avg_buf_msgs     0.010000                       # Average number of messages in buffer
system.ruby.l1_cntrl15.mandatoryQueue.avg_stall_time   432.500675                       # Average number of cycles messages are stalled in this MB
system.ruby.l1_cntrl15.requestFromCache.avg_buf_msgs     0.010000                       # Average number of messages in buffer
system.ruby.l1_cntrl15.requestFromCache.avg_stall_time   855.001450                       # Average number of cycles messages are stalled in this MB
system.ruby.l1_cntrl15.responseToCache.avg_buf_msgs     0.005000                       # Average number of messages in buffer
system.ruby.l1_cntrl15.responseToCache.avg_stall_time  1320.041800                       # Average number of cycles messages are stalled in this MB
system.ruby.l1_cntrl2.cacheMemory.demand_accesses            1                       # Number of cache demand accesses
system.ruby.l1_cntrl2.cacheMemory.demand_hits            0                       # Number of cache demand hits
system.ruby.l1_cntrl2.cacheMemory.demand_misses            1                       # Number of cache demand misses
system.ruby.l1_cntrl2.mandatoryQueue.avg_buf_msgs     0.005000                       # Average number of messages in buffer
system.ruby.l1_cntrl2.mandatoryQueue.avg_stall_time   257.502425                       # Average number of cycles messages are stalled in this MB
system.ruby.l1_cntrl2.requestFromCache.avg_buf_msgs     0.010000                       # Average number of messages in buffer
system.ruby.l1_cntrl2.requestFromCache.avg_stall_time   505.004950                       # Average number of cycles messages are stalled in this MB
system.ruby.l1_cntrl3.cacheMemory.demand_accesses            1                       # Number of cache demand accesses
system.ruby.l1_cntrl3.cacheMemory.demand_hits            0                       # Number of cache demand hits
system.ruby.l1_cntrl3.cacheMemory.demand_misses            1                       # Number of cache demand misses
system.ruby.l1_cntrl3.mandatoryQueue.avg_buf_msgs     0.005000                       # Average number of messages in buffer
system.ruby.l1_cntrl3.mandatoryQueue.avg_stall_time   467.500325                       # Average number of cycles messages are stalled in this MB
system.ruby.l1_cntrl3.requestFromCache.avg_buf_msgs     0.010000                       # Average number of messages in buffer
system.ruby.l1_cntrl3.requestFromCache.avg_stall_time   925.000750                       # Average number of cycles messages are stalled in this MB
system.ruby.l1_cntrl4.cacheMemory.demand_accesses            1                       # Number of cache demand accesses
system.ruby.l1_cntrl4.cacheMemory.demand_hits            0                       # Number of cache demand hits
system.ruby.l1_cntrl4.cacheMemory.demand_misses            1                       # Number of cache demand misses
system.ruby.l1_cntrl4.mandatoryQueue.avg_buf_msgs     0.005000                       # Average number of messages in buffer
system.ruby.l1_cntrl4.mandatoryQueue.avg_stall_time   482.500175                       # Average number of cycles messages are stalled in this MB
system.ruby.l1_cntrl4.requestFromCache.avg_buf_msgs     0.010000                       # Average number of messages in buffer
system.ruby.l1_cntrl4.requestFromCache.avg_stall_time   955.000450                       # Average number of cycles messages are stalled in this MB
system.ruby.l1_cntrl5.cacheMemory.demand_accesses            1                       # Number of cache demand accesses
system.ruby.l1_cntrl5.cacheMemory.demand_hits            0                       # Number of cache demand hits
system.ruby.l1_cntrl5.cacheMemory.demand_misses            1                       # Number of cache demand misses
system.ruby.l1_cntrl5.mandatoryQueue.avg_buf_msgs     0.005000                       # Average number of messages in buffer
system.ruby.l1_cntrl5.mandatoryQueue.avg_stall_time   482.500175                       # Average number of cycles messages are stalled in this MB
system.ruby.l1_cntrl5.requestFromCache.avg_buf_msgs     0.010000                       # Average number of messages in buffer
system.ruby.l1_cntrl5.requestFromCache.avg_stall_time   955.000450                       # Average number of cycles messages are stalled in this MB
system.ruby.l1_cntrl6.cacheMemory.demand_accesses            1                       # Number of cache demand accesses
system.ruby.l1_cntrl6.cacheMemory.demand_hits            0                       # Number of cache demand hits
system.ruby.l1_cntrl6.cacheMemory.demand_misses            1                       # Number of cache demand misses
system.ruby.l1_cntrl6.mandatoryQueue.avg_buf_msgs     0.005000                       # Average number of messages in buffer
system.ruby.l1_cntrl6.mandatoryQueue.avg_stall_time   417.500825                       # Average number of cycles messages are stalled in this MB
system.ruby.l1_cntrl6.requestFromCache.avg_buf_msgs     0.010000                       # Average number of messages in buffer
system.ruby.l1_cntrl6.requestFromCache.avg_stall_time   825.001750                       # Average number of cycles messages are stalled in this MB
system.ruby.l1_cntrl7.cacheMemory.demand_accesses            1                       # Number of cache demand accesses
system.ruby.l1_cntrl7.cacheMemory.demand_hits            0                       # Number of cache demand hits
system.ruby.l1_cntrl7.cacheMemory.demand_misses            1                       # Number of cache demand misses
system.ruby.l1_cntrl7.mandatoryQueue.avg_buf_msgs     0.005000                       # Average number of messages in buffer
system.ruby.l1_cntrl7.mandatoryQueue.avg_stall_time   372.501275                       # Average number of cycles messages are stalled in this MB
system.ruby.l1_cntrl7.requestFromCache.avg_buf_msgs     0.010000                       # Average number of messages in buffer
system.ruby.l1_cntrl7.requestFromCache.avg_stall_time   735.002650                       # Average number of cycles messages are stalled in this MB
system.ruby.l1_cntrl8.cacheMemory.demand_accesses            1                       # Number of cache demand accesses
system.ruby.l1_cntrl8.cacheMemory.demand_hits            0                       # Number of cache demand hits
system.ruby.l1_cntrl8.cacheMemory.demand_misses            1                       # Number of cache demand misses
system.ruby.l1_cntrl8.mandatoryQueue.avg_buf_msgs     0.005000                       # Average number of messages in buffer
system.ruby.l1_cntrl8.mandatoryQueue.avg_stall_time   487.500125                       # Average number of cycles messages are stalled in this MB
system.ruby.l1_cntrl8.requestFromCache.avg_buf_msgs     0.010000                       # Average number of messages in buffer
system.ruby.l1_cntrl8.requestFromCache.avg_stall_time   965.000350                       # Average number of cycles messages are stalled in this MB
system.ruby.l1_cntrl9.cacheMemory.demand_accesses            1                       # Number of cache demand accesses
system.ruby.l1_cntrl9.cacheMemory.demand_hits            0                       # Number of cache demand hits
system.ruby.l1_cntrl9.cacheMemory.demand_misses            1                       # Number of cache demand misses
system.ruby.l1_cntrl9.mandatoryQueue.avg_buf_msgs     0.005000                       # Average number of messages in buffer
system.ruby.l1_cntrl9.mandatoryQueue.avg_stall_time   497.500025                       # Average number of cycles messages are stalled in this MB
system.ruby.l1_cntrl9.requestFromCache.avg_buf_msgs     0.010000                       # Average number of messages in buffer
system.ruby.l1_cntrl9.requestFromCache.avg_stall_time   985.000150                       # Average number of cycles messages are stalled in this MB
system.ruby.latency_hist_seqr::bucket_size           32                      
system.ruby.latency_hist_seqr::max_bucket          319                      
system.ruby.latency_hist_seqr::samples             16                      
system.ruby.latency_hist_seqr::mean         11.062500                      
system.ruby.latency_hist_seqr::stdev        44.250000                      
system.ruby.latency_hist_seqr            |          15     93.75%     93.75% |           0      0.00%     93.75% |           0      0.00%     93.75% |           0      0.00%     93.75% |           0      0.00%     93.75% |           1      6.25%    100.00% |           0      0.00%    100.00% |           0      0.00%    100.00% |           0      0.00%    100.00% |           0      0.00%    100.00%
system.ruby.latency_hist_seqr::total               16                      
system.ruby.miss_latency_hist_seqr::bucket_size           32                      
system.ruby.miss_latency_hist_seqr::max_bucket          319                      
system.ruby.miss_latency_hist_seqr::samples            6                      
system.ruby.miss_latency_hist_seqr::mean    29.500000                      
system.ruby.miss_latency_hist_seqr::stdev    72.259947                      
system.ruby.miss_latency_hist_seqr       |           5     83.33%     83.33% |           0      0.00%     83.33% |           0      0.00%     83.33% |           0      0.00%     83.33% |           0      0.00%     83.33% |           1     16.67%    100.00% |           0      0.00%    100.00% |           0      0.00%    100.00% |           0      0.00%    100.00% |           0      0.00%    100.00%
system.ruby.miss_latency_hist_seqr::total            6                      
system.ruby.network.average_flit_latency 12345.238095                      
system.ruby.network.average_flit_network_latency 11702.380952                      
system.ruby.network.average_flit_queueing_latency   642.857143                      
system.ruby.network.average_flit_vnet_latency |         nan                       |         nan                       |18583.333333                       |         nan                       |        8950                      
system.ruby.network.average_flit_vqueue_latency |         nan                       |         nan                       |        1000                       |         nan                       |         500                      
system.ruby.network.average_hops             8.476190                      
system.ruby.network.average_packet_latency 16972.222222                      
system.ruby.network.average_packet_network_latency 16138.888889                      
system.ruby.network.average_packet_queueing_latency   833.333333                      
system.ruby.network.average_packet_vnet_latency |         nan                       |         nan                       |18583.333333                       |         nan                       |       11250                      
system.ruby.network.average_packet_vqueue_latency |         nan                       |         nan                       |        1000                       |         nan                       |         500                      
system.ruby.network.avg_link_utilization     4.965000                      
system.ruby.network.avg_vc_load          |           0      0.00%      0.00% |           0      0.00%      0.00% |           0      0.00%      0.00% |           0      0.00%      0.00% |           0      0.00%      0.00% |           0      0.00%      0.00% |           0      0.00%      0.00% |           0      0.00%      0.00% |           0      0.00%      0.00% |           0      0.00%      0.00% |           0      0.00%      0.00% |           0      0.00%      0.00% |           0      0.00%      0.00% |           0      0.00%      0.00% |           0      0.00%      0.00% |           0      0.00%      0.00% |    1.885000     37.97%     37.97% |    0.575000     11.58%     49.55% |    0.125000      2.52%     52.06% |    0.010000      0.20%     52.27% |           0      0.00%     52.27% |           0      0.00%     52.27% |           0      0.00%     52.27% |           0      0.00%     52.27% |           0      0.00%     52.27% |           0      0.00%     52.27% |           0      0.00%     52.27% |           0      0.00%     52.27% |           0      0.00%     52.27% |           0      0.00%     52.27% |           0      0.00%     52.27% |           0      0.00%     52.27% |    1.465000     29.51%     81.77% |    0.555000     11.18%     92.95% |    0.250000      5.04%     97.99% |    0.055000      1.11%     99.09% |    0.045000      0.91%    100.00% |           0      0.00%    100.00% |           0      0.00%    100.00% |           0      0.00%    100.00%
system.ruby.network.avg_vc_load::total       4.965000                      
system.ruby.network.ext_in_link_utilization           66                      
system.ruby.network.ext_out_link_utilization           42                      
system.ruby.network.flit_network_latency |           0                       |           0                       |      223000                       |           0                       |      268500                      
system.ruby.network.flit_queueing_latency |           0                       |           0                       |       12000                       |           0                       |       15000                      
system.ruby.network.flits_injected       |           0      0.00%      0.00% |           0      0.00%      0.00% |          16     24.24%     24.24% |           0      0.00%     24.24% |          50     75.76%    100.00%
system.ruby.network.flits_injected::total           66                      
system.ruby.network.flits_received       |           0      0.00%      0.00% |           0      0.00%      0.00% |          12     28.57%     28.57% |           0      0.00%     28.57% |          30     71.43%    100.00%
system.ruby.network.flits_received::total           42                      
system.ruby.network.int_link_utilization          885                      
system.ruby.network.packet_network_latency |           0                       |           0                       |      223000                       |           0                       |       67500                      
system.ruby.network.packet_queueing_latency |           0                       |           0                       |       12000                       |           0                       |        3000                      
system.ruby.network.packets_injected     |           0      0.00%      0.00% |           0      0.00%      0.00% |          16     61.54%     61.54% |           0      0.00%     61.54% |          10     38.46%    100.00%
system.ruby.network.packets_injected::total           26                      
system.ruby.network.packets_received     |           0      0.00%      0.00% |           0      0.00%      0.00% |          12     66.67%     66.67% |           0      0.00%     66.67% |           6     33.33%    100.00%
system.ruby.network.packets_received::total           18                      
system.ruby.network.routers00.buffer_reads            7                      
system.ruby.network.routers00.buffer_writes            7                      
system.ruby.network.routers00.crossbar_activity            7                      
system.ruby.network.routers00.sw_input_arbiter_activity            7                      
system.ruby.network.routers00.sw_output_arbiter_activity            7                      
system.ruby.network.routers01.buffer_reads            3                      
system.ruby.network.routers01.buffer_writes            3                      
system.ruby.network.routers01.crossbar_activity            3                      
system.ruby.network.routers01.sw_input_arbiter_activity            3                      
system.ruby.network.routers01.sw_output_arbiter_activity            3                      
system.ruby.network.routers02.buffer_reads            1                      
system.ruby.network.routers02.buffer_writes            1                      
system.ruby.network.routers02.crossbar_activity            1                      
system.ruby.network.routers02.sw_input_arbiter_activity            1                      
system.ruby.network.routers02.sw_output_arbiter_activity            1                      
system.ruby.network.routers03.buffer_reads           12                      
system.ruby.network.routers03.buffer_writes           12                      
system.ruby.network.routers03.crossbar_activity           12                      
system.ruby.network.routers03.sw_input_arbiter_activity           12                      
system.ruby.network.routers03.sw_output_arbiter_activity           12                      
system.ruby.network.routers04.buffer_reads            6                      
system.ruby.network.routers04.buffer_writes            6                      
system.ruby.network.routers04.crossbar_activity            6                      
system.ruby.network.routers04.sw_input_arbiter_activity            6                      
system.ruby.network.routers04.sw_output_arbiter_activity            6                      
system.ruby.network.routers05.buffer_reads           16                      
system.ruby.network.routers05.buffer_writes           16                      
system.ruby.network.routers05.crossbar_activity           16                      
system.ruby.network.routers05.sw_input_arbiter_activity           17                      
system.ruby.network.routers05.sw_output_arbiter_activity           16                      
system.ruby.network.routers06.buffer_reads           18                      
system.ruby.network.routers06.buffer_writes           18                      
system.ruby.network.routers06.crossbar_activity           18                      
system.ruby.network.routers06.sw_input_arbiter_activity           18                      
system.ruby.network.routers06.sw_output_arbiter_activity           18                      
system.ruby.network.routers07.buffer_reads           26                      
system.ruby.network.routers07.buffer_writes           26                      
system.ruby.network.routers07.crossbar_activity           26                      
system.ruby.network.routers07.sw_input_arbiter_activity           26                      
system.ruby.network.routers07.sw_output_arbiter_activity           26                      
system.ruby.network.routers08.buffer_reads           87                      
system.ruby.network.routers08.buffer_writes           87                      
system.ruby.network.routers08.crossbar_activity           85                      
system.ruby.network.routers08.sw_input_arbiter_activity           91                      
system.ruby.network.routers08.sw_output_arbiter_activity           85                      
system.ruby.network.routers09.buffer_reads           72                      
system.ruby.network.routers09.buffer_writes           72                      
system.ruby.network.routers09.crossbar_activity           71                      
system.ruby.network.routers09.sw_input_arbiter_activity           77                      
system.ruby.network.routers09.sw_output_arbiter_activity           71                      
system.ruby.network.routers10.buffer_reads           79                      
system.ruby.network.routers10.buffer_writes           79                      
system.ruby.network.routers10.crossbar_activity           79                      
system.ruby.network.routers10.sw_input_arbiter_activity           86                      
system.ruby.network.routers10.sw_output_arbiter_activity           79                      
system.ruby.network.routers11.buffer_reads           49                      
system.ruby.network.routers11.buffer_writes           49                      
system.ruby.network.routers11.crossbar_activity           49                      
system.ruby.network.routers11.sw_input_arbiter_activity           50                      
system.ruby.network.routers11.sw_output_arbiter_activity           49                      
system.ruby.network.routers12.buffer_reads          135                      
system.ruby.network.routers12.buffer_writes          135                      
system.ruby.network.routers12.crossbar_activity          130                      
system.ruby.network.routers12.sw_input_arbiter_activity          159                      
system.ruby.network.routers12.sw_output_arbiter_activity          130                      
system.ruby.network.routers13.buffer_reads          166                      
system.ruby.network.routers13.buffer_writes          166                      
system.ruby.network.routers13.crossbar_activity          166                      
system.ruby.network.routers13.sw_input_arbiter_activity          195                      
system.ruby.network.routers13.sw_output_arbiter_activity          166                      
system.ruby.network.routers14.buffer_reads          174                      
system.ruby.network.routers14.buffer_writes          174                      
system.ruby.network.routers14.crossbar_activity          174                      
system.ruby.network.routers14.sw_input_arbiter_activity          202                      
system.ruby.network.routers14.sw_output_arbiter_activity          174                      
system.ruby.network.routers15.buffer_reads           92                      
system.ruby.network.routers15.buffer_writes           92                      
system.ruby.network.routers15.crossbar_activity           92                      
system.ruby.network.routers15.sw_input_arbiter_activity          100                      
system.ruby.network.routers15.sw_output_arbiter_activity           92                      
system.ruby.outstanding_req_hist_seqr::bucket_size            1                      
system.ruby.outstanding_req_hist_seqr::max_bucket            9                      
system.ruby.outstanding_req_hist_seqr::samples           24                      
system.ruby.outstanding_req_hist_seqr::mean            1                      
system.ruby.outstanding_req_hist_seqr::gmean            1                      
system.ruby.outstanding_req_hist_seqr    |           0      0.00%      0.00% |          24    100.00%    100.00% |           0      0.00%    100.00% |           0      0.00%    100.00% |           0      0.00%    100.00% |           0      0.00%    100.00% |           0      0.00%    100.00% |           0      0.00%    100.00% |           0      0.00%    100.00% |           0      0.00%    100.00%
system.ruby.outstanding_req_hist_seqr::total           24                      
system.clk_domain.clock                          1000                       # Clock period in ticks
system.cpu0.power_state.pwrStateResidencyTicks::UNDEFINED       100000                       # Cumulative time (in ticks) in various power states
system.cpu1.power_state.pwrStateResidencyTicks::UNDEFINED       100000                       # Cumulative time (in ticks) in various power states
system.cpu10.power_state.pwrStateResidencyTicks::UNDEFINED       100000                       # Cumulative time (in ticks) in various power states
system.cpu11.power_state.pwrStateResidencyTicks::UNDEFINED       100000                       # Cumulative time (in ticks) in various power states
system.cpu12.power_state.pwrStateResidencyTicks::UNDEFINED       100000                       # Cumulative time (in ticks) in various power states
system.cpu13.power_state.pwrStateResidencyTicks::UNDEFINED       100000                       # Cumulative time (in ticks) in various power states
system.cpu14.power_state.pwrStateResidencyTicks::UNDEFINED       100000                       # Cumulative time (in ticks) in various power states
system.cpu15.power_state.pwrStateResidencyTicks::UNDEFINED       100000                       # Cumulative time (in ticks) in various power states
system.cpu2.power_state.pwrStateResidencyTicks::UNDEFINED       100000                       # Cumulative time (in ticks) in various power states
system.cpu3.power_state.pwrStateResidencyTicks::UNDEFINED       100000                       # Cumulative time (in ticks) in various power states
system.cpu4.power_state.pwrStateResidencyTicks::UNDEFINED       100000                       # Cumulative time (in ticks) in various power states
system.cpu5.power_state.pwrStateResidencyTicks::UNDEFINED       100000                       # Cumulative time (in ticks) in various power states
system.cpu6.power_state.pwrStateResidencyTicks::UNDEFINED       100000                       # Cumulative time (in ticks) in various power states
system.cpu7.power_state.pwrStateResidencyTicks::UNDEFINED       100000                       # Cumulative time (in ticks) in various power states
system.cpu8.power_state.pwrStateResidencyTicks::UNDEFINED       100000                       # Cumulative time (in ticks) in various power states
system.cpu9.power_state.pwrStateResidencyTicks::UNDEFINED       100000                       # Cumulative time (in ticks) in various power states
system.mem_ctrls0.avgPriority_.ruby.dir_cntrl0::samples         1.00                       # Average QoS priority value for accepted requests
system.mem_ctrls0.priorityMinLatency     0.000000032500                       # per QoS priority minimum request to response latency (s)
system.mem_ctrls0.priorityMaxLatency     0.000000032500                       # per QoS priority maximum request to response latency (s)
system.mem_ctrls0.numReadWriteTurnArounds            0                       # Number of turnarounds from READ to WRITE
system.mem_ctrls0.numWriteReadTurnArounds            0                       # Number of turnarounds from WRITE to READ
system.mem_ctrls0.numStayReadState                  2                       # Number of times bus staying in READ state
system.mem_ctrls0.numStayWriteState                 0                       # Number of times bus staying in WRITE state
system.mem_ctrls0.readReqs                          1                       # Number of read requests accepted
system.mem_ctrls0.writeReqs                         0                       # Number of write requests accepted
system.mem_ctrls0.readBursts                        1                       # Number of controller read bursts, including those serviced by the write queue
system.mem_ctrls0.writeBursts                       0                       # Number of controller write bursts, including those merged in the write queue
system.mem_ctrls0.servicedByWrQ                     0                       # Number of controller read bursts serviced by the write queue
system.mem_ctrls0.mergedWrBursts                    0                       # Number of controller write bursts merged with an existing one
system.mem_ctrls0.neitherReadNorWriteReqs            0                       # Number of requests that are neither read nor write
system.mem_ctrls0.avgRdQLen                      0.83                       # Average read queue length when enqueuing
system.mem_ctrls0.avgWrQLen                      0.00                       # Average write queue length when enqueuing
system.mem_ctrls0.numRdRetry                        0                       # Number of times read queue was full causing retry
system.mem_ctrls0.numWrRetry                        0                       # Number of times write queue was full causing retry
system.mem_ctrls0.readPktSize::0                    0                       # Read request sizes (log2)
system.mem_ctrls0.readPktSize::1                    0                       # Read request sizes (log2)
system.mem_ctrls0.readPktSize::2                    0                       # Read request sizes (log2)
system.mem_ctrls0.readPktSize::3                    0                       # Read request sizes (log2)
system.mem_ctrls0.readPktSize::4                    0                       # Read request sizes (log2)
system.mem_ctrls0.readPktSize::5                    0                       # Read request sizes (log2)
system.mem_ctrls0.readPktSize::6                    1                       # Read request sizes (log2)
system.mem_ctrls0.writePktSize::0                   0                       # Write request sizes (log2)
system.mem_ctrls0.writePktSize::1                   0                       # Write request sizes (log2)
system.mem_ctrls0.writePktSize::2                   0                       # Write request sizes (log2)
system.mem_ctrls0.writePktSize::3                   0                       # Write request sizes (log2)
system.mem_ctrls0.writePktSize::4                   0                       # Write request sizes (log2)
system.mem_ctrls0.writePktSize::5                   0                       # Write request sizes (log2)
system.mem_ctrls0.writePktSize::6                   0                       # Write request sizes (log2)
system.mem_ctrls0.rdQLenPdf::0                      1                       # What read queue length does an incoming req see
system.mem_ctrls0.rdQLenPdf::1                      0                       # What read queue length does an incoming req see
system.mem_ctrls0.rdQLenPdf::2                      0                       # What read queue length does an incoming req see
system.mem_ctrls0.rdQLenPdf::3                      0                       # What read queue length does an incoming req see
[...]
system.ruby.network.int_links42.dst_net_bridge.power_state.pwrStateResidencyTicks::UNDEFINED       100000                       # Cumulative time (in ticks) in various power states
system.ruby.network.int_links42.network_link.power_state.pwrStateResidencyTicks::UNDEFINED       100000                       # Cumulative time (in ticks) in various power states
system.ruby.network.int_links42.src_cred_bridge.power_state.pwrStateResidencyTicks::UNDEFINED       100000                       # Cumulative time (in ticks) in various power states
system.ruby.network.int_links42.src_net_bridge.power_state.pwrStateResidencyTicks::UNDEFINED       100000                       # Cumulative time (in ticks) in various power states
system.ruby.network.int_links43.credit_link.power_state.pwrStateResidencyTicks::UNDEFINED       100000                       # Cumulative time (in ticks) in various power states
system.ruby.network.int_links43.dst_cred_bridge.power_state.pwrStateResidencyTicks::UNDEFINED       100000                       # Cumulative time (in ticks) in various power states
system.ruby.network.int_links43.dst_net_bridge.power_state.pwrStateResidencyTicks::UNDEFINED       100000                       # Cumulative time (in ticks) in various power states
system.ruby.network.int_links43.network_link.power_state.pwrStateResidencyTicks::UNDEFINED       100000                       # Cumulative time (in ticks) in various power states
system.ruby.network.int_links43.src_cred_bridge.power_state.pwrStateResidencyTicks::UNDEFINED       100000                       # Cumulative time (in ticks) in various power states
system.ruby.network.int_links43.src_net_bridge.power_state.pwrStateResidencyTicks::UNDEFINED       100000                       # Cumulative time (in ticks) in various power states
system.ruby.network.int_links44.credit_link.power_state.pwrStateResidencyTicks::UNDEFINED       100000                       # Cumulative time (in ticks) in various power states
system.ruby.network.int_links44.dst_cred_bridge.power_state.pwrStateResidencyTicks::UNDEFINED       100000                       # Cumulative time (in ticks) in various power states
system.ruby.network.int_links44.dst_net_bridge.power_state.pwrStateResidencyTicks::UNDEFINED       100000                       # Cumulative time (in ticks) in various power states
system.ruby.network.int_links44.network_link.power_state.pwrStateResidencyTicks::UNDEFINED       100000                       # Cumulative time (in ticks) in various power states
system.ruby.network.int_links44.src_cred_bridge.power_state.pwrStateResidencyTicks::UNDEFINED       100000                       # Cumulative time (in ticks) in various power states
system.ruby.network.int_links44.src_net_bridge.power_state.pwrStateResidencyTicks::UNDEFINED       100000                       # Cumulative time (in ticks) in various power states
system.ruby.network.int_links45.credit_link.power_state.pwrStateResidencyTicks::UNDEFINED       100000                       # Cumulative time (in ticks) in various power states
system.ruby.network.int_links45.dst_cred_bridge.power_state.pwrStateResidencyTicks::UNDEFINED       100000                       # Cumulative time (in ticks) in various power states
system.ruby.network.int_links45.dst_net_bridge.power_state.pwrStateResidencyTicks::UNDEFINED       100000                       # Cumulative time (in ticks) in various power states
system.ruby.network.int_links45.network_link.power_state.pwrStateResidencyTicks::UNDEFINED       100000                       # Cumulative time (in ticks) in various power states
system.ruby.network.int_links45.src_cred_bridge.power_state.pwrStateResidencyTicks::UNDEFINED       100000                       # Cumulative time (in ticks) in various power states
system.ruby.network.int_links45.src_net_bridge.power_state.pwrStateResidencyTicks::UNDEFINED       100000                       # Cumulative time (in ticks) in various power states
system.ruby.network.int_links46.credit_link.power_state.pwrStateResidencyTicks::UNDEFINED       100000                       # Cumulative time (in ticks) in various power states
system.ruby.network.int_links46.dst_cred_bridge.power_state.pwrStateResidencyTicks::UNDEFINED       100000                       # Cumulative time (in ticks) in various power states
system.ruby.network.int_links46.dst_net_bridge.power_state.pwrStateResidencyTicks::UNDEFINED       100000                       # Cumulative time (in ticks) in various power states
system.ruby.network.int_links46.network_link.power_state.pwrStateResidencyTicks::UNDEFINED       100000                       # Cumulative time (in ticks) in various power states
system.ruby.network.int_links46.src_cred_bridge.power_state.pwrStateResidencyTicks::UNDEFINED       100000                       # Cumulative time (in ticks) in various power states
system.ruby.network.int_links46.src_net_bridge.power_state.pwrStateResidencyTicks::UNDEFINED       100000                       # Cumulative time (in ticks) in various power states
system.ruby.network.int_links47.credit_link.power_state.pwrStateResidencyTicks::UNDEFINED       100000                       # Cumulative time (in ticks) in various power states
system.ruby.network.int_links47.dst_cred_bridge.power_state.pwrStateResidencyTicks::UNDEFINED       100000                       # Cumulative time (in ticks) in various power states
system.ruby.network.int_links47.dst_net_bridge.power_state.pwrStateResidencyTicks::UNDEFINED       100000                       # Cumulative time (in ticks) in various power states
system.ruby.network.int_links47.network_link.power_state.pwrStateResidencyTicks::UNDEFINED       100000                       # Cumulative time (in ticks) in various power states
system.ruby.network.int_links47.src_cred_bridge.power_state.pwrStateResidencyTicks::UNDEFINED       100000                       # Cumulative time (in ticks) in various power states
system.ruby.network.int_links47.src_net_bridge.power_state.pwrStateResidencyTicks::UNDEFINED       100000                       # Cumulative time (in ticks) in various power states
system.ruby.network.int_links5.credit_link.power_state.pwrStateResidencyTicks::UNDEFINED       100000                       # Cumulative time (in ticks) in various power states
system.ruby.network.int_links5.dst_cred_bridge.power_state.pwrStateResidencyTicks::UNDEFINED       100000                       # Cumulative time (in ticks) in various power states
system.ruby.network.int_links5.dst_net_bridge.power_state.pwrStateResidencyTicks::UNDEFINED       100000                       # Cumulative time (in ticks) in various power states
system.ruby.network.int_links5.network_link.power_state.pwrStateResidencyTicks::UNDEFINED       100000                       # Cumulative time (in ticks) in various power states
system.ruby.network.int_links5.src_cred_bridge.power_state.pwrStateResidencyTicks::UNDEFINED       100000                       # Cumulative time (in ticks) in various power states
system.ruby.network.int_links5.src_net_bridge.power_state.pwrStateResidencyTicks::UNDEFINED       100000                       # Cumulative time (in ticks) in various power states
system.ruby.network.int_links6.credit_link.power_state.pwrStateResidencyTicks::UNDEFINED       100000                       # Cumulative time (in ticks) in various power states
system.ruby.network.int_links6.dst_cred_bridge.power_state.pwrStateResidencyTicks::UNDEFINED       100000                       # Cumulative time (in ticks) in various power states
system.ruby.network.int_links6.dst_net_bridge.power_state.pwrStateResidencyTicks::UNDEFINED       100000                       # Cumulative time (in ticks) in various power states
system.ruby.network.int_links6.network_link.power_state.pwrStateResidencyTicks::UNDEFINED       100000                       # Cumulative time (in ticks) in various power states
system.ruby.network.int_links6.src_cred_bridge.power_state.pwrStateResidencyTicks::UNDEFINED       100000                       # Cumulative time (in ticks) in various power states
system.ruby.network.int_links6.src_net_bridge.power_state.pwrStateResidencyTicks::UNDEFINED       100000                       # Cumulative time (in ticks) in various power states
system.ruby.network.int_links7.credit_link.power_state.pwrStateResidencyTicks::UNDEFINED       100000                       # Cumulative time (in ticks) in various power states
system.ruby.network.int_links7.dst_cred_bridge.power_state.pwrStateResidencyTicks::UNDEFINED       100000                       # Cumulative time (in ticks) in various power states
system.ruby.network.int_links7.dst_net_bridge.power_state.pwrStateResidencyTicks::UNDEFINED       100000                       # Cumulative time (in ticks) in various power states
system.ruby.network.int_links7.network_link.power_state.pwrStateResidencyTicks::UNDEFINED       100000                       # Cumulative time (in ticks) in various power states
system.ruby.network.int_links7.src_cred_bridge.power_state.pwrStateResidencyTicks::UNDEFINED       100000                       # Cumulative time (in ticks) in various power states
system.ruby.network.int_links7.src_net_bridge.power_state.pwrStateResidencyTicks::UNDEFINED       100000                       # Cumulative time (in ticks) in various power states
system.ruby.network.int_links8.credit_link.power_state.pwrStateResidencyTicks::UNDEFINED       100000                       # Cumulative time (in ticks) in various power states
system.ruby.network.int_links8.dst_cred_bridge.power_state.pwrStateResidencyTicks::UNDEFINED       100000                       # Cumulative time (in ticks) in various power states
system.ruby.network.int_links8.dst_net_bridge.power_state.pwrStateResidencyTicks::UNDEFINED       100000                       # Cumulative time (in ticks) in various power states
system.ruby.network.int_links8.network_link.power_state.pwrStateResidencyTicks::UNDEFINED       100000                       # Cumulative time (in ticks) in various power states
system.ruby.network.int_links8.src_cred_bridge.power_state.pwrStateResidencyTicks::UNDEFINED       100000                       # Cumulative time (in ticks) in various power states
system.ruby.network.int_links8.src_net_bridge.power_state.pwrStateResidencyTicks::UNDEFINED       100000                       # Cumulative time (in ticks) in various power states
system.ruby.network.int_links9.credit_link.power_state.pwrStateResidencyTicks::UNDEFINED       100000                       # Cumulative time (in ticks) in various power states
system.ruby.network.int_links9.dst_cred_bridge.power_state.pwrStateResidencyTicks::UNDEFINED       100000                       # Cumulative time (in ticks) in various power states
system.ruby.network.int_links9.dst_net_bridge.power_state.pwrStateResidencyTicks::UNDEFINED       100000                       # Cumulative time (in ticks) in various power states
system.ruby.network.int_links9.network_link.power_state.pwrStateResidencyTicks::UNDEFINED       100000                       # Cumulative time (in ticks) in various power states
system.ruby.network.int_links9.src_cred_bridge.power_state.pwrStateResidencyTicks::UNDEFINED       100000                       # Cumulative time (in ticks) in various power states
system.ruby.network.int_links9.src_net_bridge.power_state.pwrStateResidencyTicks::UNDEFINED       100000                       # Cumulative time (in ticks) in various power states
system.ruby.network.netifs0.power_state.pwrStateResidencyTicks::UNDEFINED       100000                       # Cumulative time (in ticks) in various power states
system.ruby.network.netifs1.power_state.pwrStateResidencyTicks::UNDEFINED       100000                       # Cumulative time (in ticks) in various power states
system.ruby.network.netifs10.power_state.pwrStateResidencyTicks::UNDEFINED       100000                       # Cumulative time (in ticks) in various power states
system.ruby.network.netifs11.power_state.pwrStateResidencyTicks::UNDEFINED       100000                       # Cumulative time (in ticks) in various power states
system.ruby.network.netifs12.power_state.pwrStateResidencyTicks::UNDEFINED       100000                       # Cumulative time (in ticks) in various power states
system.ruby.network.netifs13.power_state.pwrStateResidencyTicks::UNDEFINED       100000                       # Cumulative time (in ticks) in various power states
system.ruby.network.netifs14.power_state.pwrStateResidencyTicks::UNDEFINED       100000                       # Cumulative time (in ticks) in various power states
system.ruby.network.netifs15.power_state.pwrStateResidencyTicks::UNDEFINED       100000                       # Cumulative time (in ticks) in various power states
system.ruby.network.netifs16.power_state.pwrStateResidencyTicks::UNDEFINED       100000                       # Cumulative time (in ticks) in various power states
system.ruby.network.netifs17.power_state.pwrStateResidencyTicks::UNDEFINED       100000                       # Cumulative time (in ticks) in various power states
system.ruby.network.netifs18.power_state.pwrStateResidencyTicks::UNDEFINED       100000                       # Cumulative time (in ticks) in various power states
system.ruby.network.netifs19.power_state.pwrStateResidencyTicks::UNDEFINED       100000                       # Cumulative time (in ticks) in various power states
system.ruby.network.netifs2.power_state.pwrStateResidencyTicks::UNDEFINED       100000                       # Cumulative time (in ticks) in various power states
system.ruby.network.netifs20.power_state.pwrStateResidencyTicks::UNDEFINED       100000                       # Cumulative time (in ticks) in various power states
system.ruby.network.netifs21.power_state.pwrStateResidencyTicks::UNDEFINED       100000                       # Cumulative time (in ticks) in various power states
system.ruby.network.netifs22.power_state.pwrStateResidencyTicks::UNDEFINED       100000                       # Cumulative time (in ticks) in various power states
system.ruby.network.netifs23.power_state.pwrStateResidencyTicks::UNDEFINED       100000                       # Cumulative time (in ticks) in various power states
system.ruby.network.netifs24.power_state.pwrStateResidencyTicks::UNDEFINED       100000                       # Cumulative time (in ticks) in various power states
system.ruby.network.netifs25.power_state.pwrStateResidencyTicks::UNDEFINED       100000                       # Cumulative time (in ticks) in various power states
system.ruby.network.netifs26.power_state.pwrStateResidencyTicks::UNDEFINED       100000                       # Cumulative time (in ticks) in various power states
system.ruby.network.netifs27.power_state.pwrStateResidencyTicks::UNDEFINED       100000                       # Cumulative time (in ticks) in various power states
system.ruby.network.netifs28.power_state.pwrStateResidencyTicks::UNDEFINED       100000                       # Cumulative time (in ticks) in various power states
system.ruby.network.netifs29.power_state.pwrStateResidencyTicks::UNDEFINED       100000                       # Cumulative time (in ticks) in various power states
system.ruby.network.netifs3.power_state.pwrStateResidencyTicks::UNDEFINED       100000                       # Cumulative time (in ticks) in various power states
system.ruby.network.netifs30.power_state.pwrStateResidencyTicks::UNDEFINED       100000                       # Cumulative time (in ticks) in various power states
system.ruby.network.netifs31.power_state.pwrStateResidencyTicks::UNDEFINED       100000                       # Cumulative time (in ticks) in various power states
system.ruby.network.netifs4.power_state.pwrStateResidencyTicks::UNDEFINED       100000                       # Cumulative time (in ticks) in various power states
system.ruby.network.netifs5.power_state.pwrStateResidencyTicks::UNDEFINED       100000                       # Cumulative time (in ticks) in various power states
system.ruby.network.netifs6.power_state.pwrStateResidencyTicks::UNDEFINED       100000                       # Cumulative time (in ticks) in various power states
system.ruby.network.netifs7.power_state.pwrStateResidencyTicks::UNDEFINED       100000                       # Cumulative time (in ticks) in various power states
system.ruby.network.netifs8.power_state.pwrStateResidencyTicks::UNDEFINED       100000                       # Cumulative time (in ticks) in various power states
system.ruby.network.netifs9.power_state.pwrStateResidencyTicks::UNDEFINED       100000                       # Cumulative time (in ticks) in various power states
system.ruby.network.power_state.pwrStateResidencyTicks::UNDEFINED       100000                       # Cumulative time (in ticks) in various power states
system.ruby.network.routers0.power_state.pwrStateResidencyTicks::UNDEFINED       100000                       # Cumulative time (in ticks) in various power states
system.ruby.network.routers1.power_state.pwrStateResidencyTicks::UNDEFINED       100000                       # Cumulative time (in ticks) in various power states
system.ruby.network.routers10.power_state.pwrStateResidencyTicks::UNDEFINED       100000                       # Cumulative time (in ticks) in various power states
system.ruby.network.routers11.power_state.pwrStateResidencyTicks::UNDEFINED       100000                       # Cumulative time (in ticks) in various power states
system.ruby.network.routers12.power_state.pwrStateResidencyTicks::UNDEFINED       100000                       # Cumulative time (in ticks) in various power states
system.ruby.network.routers13.power_state.pwrStateResidencyTicks::UNDEFINED       100000                       # Cumulative time (in ticks) in various power states
system.ruby.network.routers14.power_state.pwrStateResidencyTicks::UNDEFINED       100000                       # Cumulative time (in ticks) in various power states
system.ruby.network.routers15.power_state.pwrStateResidencyTicks::UNDEFINED       100000                       # Cumulative time (in ticks) in various power states
system.ruby.network.routers2.power_state.pwrStateResidencyTicks::UNDEFINED       100000                       # Cumulative time (in ticks) in various power states
system.ruby.network.routers3.power_state.pwrStateResidencyTicks::UNDEFINED       100000                       # Cumulative time (in ticks) in various power states
system.ruby.network.routers4.power_state.pwrStateResidencyTicks::UNDEFINED       100000                       # Cumulative time (in ticks) in various power states
system.ruby.network.routers5.power_state.pwrStateResidencyTicks::UNDEFINED       100000                       # Cumulative time (in ticks) in various power states
system.ruby.network.routers6.power_state.pwrStateResidencyTicks::UNDEFINED       100000                       # Cumulative time (in ticks) in various power states
system.ruby.network.routers7.power_state.pwrStateResidencyTicks::UNDEFINED       100000                       # Cumulative time (in ticks) in various power states
system.ruby.network.routers8.power_state.pwrStateResidencyTicks::UNDEFINED       100000                       # Cumulative time (in ticks) in various power states
system.ruby.network.routers9.power_state.pwrStateResidencyTicks::UNDEFINED       100000                       # Cumulative time (in ticks) in various power states
system.ruby.power_state.pwrStateResidencyTicks::UNDEFINED       100000                       # Cumulative time (in ticks) in various power states
system.sys_port_proxy.power_state.pwrStateResidencyTicks::UNDEFINED       100000                       # Cumulative time (in ticks) in various power states
system.voltage_domain.voltage                       1                       # Voltage in Volts

---------- End Simulation Statistics   ----------
