
---------- Begin Simulation Statistics ----------
final_tick                                     100000                       # Number of ticks from beginning of simulation (restored from checkpoints and never reset)
host_mem_usage                                 783248                       # Number of bytes of host memory used
host_seconds                                     0.05                       # Real time elapsed on the host
host_tick_rate                                1873023                       # Simulator tick rate (ticks/s)
sim_freq                                 1000000000000                       # Frequency of simulated ticks
sim_seconds                                  0.000000                       # Number of seconds simulated
sim_ticks                                      100000                       # Number of ticks simulated
system.ruby.Directory_Controller.I.Receive_Forward |          10      5.24%      5.24% |          14      7.33%     12.57% |           9      4.71%     17.28% |          12      6.28%     23.56% |          12      6.28%     29.84% |          15      7.85%     37.70% |          14      7.33%     45.03% |           5      2.62%     47.64% |          16      8.38%     56.02% |          14      7.33%     63.35% |           8      4.19%     67.54% |           7      3.66%     71.20% |          11      5.76%     76.96% |          15      7.85%     84.82% |          16      8.38%     93.19% |          13      6.81%    100.00%
system.ruby.Directory_Controller.I.Receive_Forward::total          191                      
system.ruby.Directory_Controller.I.Receive_Request |          10      4.78%      4.78% |          14      6.70%     11.48% |           8      3.83%     15.31% |          13      6.22%     21.53% |          10      4.78%     26.32% |          14      6.70%     33.01% |          13      6.22%     39.23% |          13      6.22%     45.45% |          22     10.53%     55.98% |          13      6.22%     62.20% |          16      7.66%     69.86% |          11      5.26%     75.12% |          16      7.66%     82.78% |          16      7.66%     90.43% |           7      3.35%     93.78% |          13      6.22%    100.00%
system.ruby.Directory_Controller.I.Receive_Request::total          209                      
system.ruby.Directory_Controller.I.Receive_Response |           7      3.80%      3.80% |          10      5.43%      9.24% |          19     10.33%     19.57% |           6      3.26%     22.83% |          15      8.15%     30.98% |          12      6.52%     37.50% |          15      8.15%     45.65% |           8      4.35%     50.00% |           9      4.89%     54.89% |          14      7.61%     62.50% |          12      6.52%     69.02% |          13      7.07%     76.09% |          12      6.52%     82.61% |           9      4.89%     87.50% |          14      7.61%     95.11% |           9      4.89%    100.00%
system.ruby.Directory_Controller.I.Receive_Response::total          184                      
system.ruby.Directory_Controller.Receive_Forward |          10      5.24%      5.24% |          14      7.33%     12.57% |           9      4.71%     17.28% |          12      6.28%     23.56% |          12      6.28%     29.84% |          15      7.85%     37.70% |          14      7.33%     45.03% |           5      2.62%     47.64% |          16      8.38%     56.02% |          14      7.33%     63.35% |           8      4.19%     67.54% |           7      3.66%     71.20% |          11      5.76%     76.96% |          15      7.85%     84.82% |          16      8.38%     93.19% |          13      6.81%    100.00%
system.ruby.Directory_Controller.Receive_Forward::total          191                      
system.ruby.Directory_Controller.Receive_Request |          10      4.78%      4.78% |          14      6.70%     11.48% |           8      3.83%     15.31% |          13      6.22%     21.53% |          10      4.78%     26.32% |          14      6.70%     33.01% |          13      6.22%     39.23% |          13      6.22%     45.45% |          22     10.53%     55.98% |          13      6.22%     62.20% |          16      7.66%     69.86% |          11      5.26%     75.12% |          16      7.66%     82.78% |          16      7.66%     90.43% |           7      3.35%     93.78% |          13      6.22%    100.00%
system.ruby.Directory_Controller.Receive_Request::total          209                      
system.ruby.Directory_Controller.Receive_Response |           7      3.80%      3.80% |          10      5.43%      9.24% |          19     10.33%     19.57% |           6      3.26%     22.83% |          15      8.15%     30.98% |          12      6.52%     37.50% |          15      8.15%     45.65% |           8      4.35%     50.00% |           9      4.89%     54.89% |          14      7.61%     62.50% |          12      6.52%     69.02% |          13      7.07%     76.09% |          12      6.52%     82.61% |           9      4.89%     87.50% |          14      7.61%     95.11% |           9      4.89%    100.00%
system.ruby.Directory_Controller.Receive_Response::total          184                      
system.ruby.IFETCH.hit_latency_hist_seqr::bucket_size            1                      
system.ruby.IFETCH.hit_latency_hist_seqr::max_bucket            9                      
system.ruby.IFETCH.hit_latency_hist_seqr::samples          207                      
system.ruby.IFETCH.hit_latency_hist_seqr::mean     0.004831                      
system.ruby.IFETCH.hit_latency_hist_seqr::stdev     0.069505                      
system.ruby.IFETCH.hit_latency_hist_seqr |         206     99.52%     99.52% |           1      0.48%    100.00% |           0      0.00%    100.00% |           0      0.00%    100.00% |           0      0.00%    100.00% |           0      0.00%    100.00% |           0      0.00%    100.00% |           0      0.00%    100.00% |           0      0.00%    100.00% |           0      0.00%    100.00%
system.ruby.IFETCH.hit_latency_hist_seqr::total          207                      
system.ruby.IFETCH.latency_hist_seqr::bucket_size            1                      
system.ruby.IFETCH.latency_hist_seqr::max_bucket            9                      
system.ruby.IFETCH.latency_hist_seqr::samples          207                      
system.ruby.IFETCH.latency_hist_seqr::mean     0.004831                      
system.ruby.IFETCH.latency_hist_seqr::stdev     0.069505                      
system.ruby.IFETCH.latency_hist_seqr     |         206     99.52%     99.52% |           1      0.48%    100.00% |           0      0.00%    100.00% |           0      0.00%    100.00% |           0      0.00%    100.00% |           0      0.00%    100.00% |           0      0.00%    100.00% |           0      0.00%    100.00% |           0      0.00%    100.00% |           0      0.00%    100.00%
system.ruby.IFETCH.latency_hist_seqr::total          207                      
system.ruby.L1Cache_Controller.Forward   |           9      4.35%      4.35% |          15      7.25%     11.59% |          10      4.83%     16.43% |          12      5.80%     22.22% |          14      6.76%     28.99% |          13      6.28%     35.27% |           9      4.35%     39.61% |           9      4.35%     43.96% |          15      7.25%     51.21% |          12      5.80%     57.00% |          22     10.63%     67.63% |          17      8.21%     75.85% |          14      6.76%     82.61% |           8      3.86%     86.47% |          13      6.28%     92.75% |          15      7.25%    100.00%
system.ruby.L1Cache_Controller.Forward::total          207                      
system.ruby.L1Cache_Controller.I.Forward |           9      4.35%      4.35% |          15      7.25%     11.59% |          10      4.83%     16.43% |          12      5.80%     22.22% |          14      6.76%     28.99% |          13      6.28%     35.27% |           9      4.35%     39.61% |           9      4.35%     43.96% |          15      7.25%     51.21% |          12      5.80%     57.00% |          22     10.63%     67.63% |          17      8.21%     75.85% |          14      6.76%     82.61% |           8      3.86%     86.47% |          13      6.28%     92.75% |          15      7.25%    100.00%
system.ruby.L1Cache_Controller.I.Forward::total          207                      
system.ruby.L1Cache_Controller.I.Request |          15      6.61%      6.61% |          12      5.29%     11.89% |          19      8.37%     20.26% |          14      6.17%     26.43% |          13      5.73%     32.16% |          14      6.17%     38.33% |          21      9.25%     47.58% |          10      4.41%     51.98% |          16      7.05%     59.03% |          16      7.05%     66.08% |          16      7.05%     73.13% |          10      4.41%     77.53% |          12      5.29%     82.82% |          13      5.73%     88.55% |          11      4.85%     93.39% |          15      6.61%    100.00%
system.ruby.L1Cache_Controller.I.Request::total          227                      
system.ruby.L1Cache_Controller.I.Response |          19      8.15%      8.15% |           7      3.00%     11.16% |           9      3.86%     15.02% |          12      5.15%     20.17% |          12      5.15%     25.32% |          18      7.73%     33.05% |          13      5.58%     38.63% |          16      6.87%     45.49% |          18      7.73%     53.22% |          22      9.44%     62.66% |          13      5.58%     68.24% |          20      8.58%     76.82% |          14      6.01%     82.83% |          18      7.73%     90.56% |          16      6.87%     97.42% |           6      2.58%    100.00%
system.ruby.L1Cache_Controller.I.Response::total          233                      
system.ruby.L1Cache_Controller.Request   |          15      6.61%      6.61% |          12      5.29%     11.89% |          19      8.37%     20.26% |          14      6.17%     26.43% |          13      5.73%     32.16% |          14      6.17%     38.33% |          21      9.25%     47.58% |          10      4.41%     51.98% |          16      7.05%     59.03% |          16      7.05%     66.08% |          16      7.05%     73.13% |          10      4.41%     77.53% |          12      5.29%     82.82% |          13      5.73%     88.55% |          11      4.85%     93.39% |          15      6.61%    100.00%
system.ruby.L1Cache_Controller.Request::total          227                      
system.ruby.L1Cache_Controller.Response  |          19      8.15%      8.15% |           7      3.00%     11.16% |           9      3.86%     15.02% |          12      5.15%     20.17% |          12      5.15%     25.32% |          18      7.73%     33.05% |          13      5.58%     38.63% |          16      6.87%     45.49% |          18      7.73%     53.22% |          22      9.44%     62.66% |          13      5.58%     68.24% |          20      8.58%     76.82% |          14      6.01%     82.83% |          18      7.73%     90.56% |          16      6.87%     97.42% |           6      2.58%    100.00%
system.ruby.L1Cache_Controller.Response::total          233                      
system.ruby.LD.hit_latency_hist_seqr::bucket_size            1                      
system.ruby.LD.hit_latency_hist_seqr::max_bucket            9                      
system.ruby.LD.hit_latency_hist_seqr::samples          227                      
system.ruby.LD.hit_latency_hist_seqr::mean     0.017621                      
system.ruby.LD.hit_latency_hist_seqr::stdev     0.131861                      
system.ruby.LD.hit_latency_hist_seqr     |         223     98.24%     98.24% |           4      1.76%    100.00% |           0      0.00%    100.00% |           0      0.00%    100.00% |           0      0.00%    100.00% |           0      0.00%    100.00% |           0      0.00%    100.00% |           0      0.00%    100.00% |           0      0.00%    100.00% |           0      0.00%    100.00%
system.ruby.LD.hit_latency_hist_seqr::total          227                      
system.ruby.LD.latency_hist_seqr::bucket_size            1                      
system.ruby.LD.latency_hist_seqr::max_bucket            9                      
system.ruby.LD.latency_hist_seqr::samples          227                      
system.ruby.LD.latency_hist_seqr::mean       0.017621                      
system.ruby.LD.latency_hist_seqr::stdev      0.131861                      
system.ruby.LD.latency_hist_seqr         |         223     98.24%     98.24% |           4      1.76%    100.00% |           0      0.00%    100.00% |           0      0.00%    100.00% |           0      0.00%    100.00% |           0      0.00%    100.00% |           0      0.00%    100.00% |           0      0.00%    100.00% |           0      0.00%    100.00% |           0      0.00%    100.00%
system.ruby.LD.latency_hist_seqr::total           227                      
system.ruby.ST.hit_latency_hist_seqr::bucket_size            1                      
system.ruby.ST.hit_latency_hist_seqr::max_bucket            9                      
system.ruby.ST.hit_latency_hist_seqr::samples          233                      
system.ruby.ST.hit_latency_hist_seqr::mean     0.004292                      
system.ruby.ST.hit_latency_hist_seqr::stdev     0.065512                      
system.ruby.ST.hit_latency_hist_seqr     |         232     99.57%     99.57% |           1      0.43%    100.00% |           0      0.00%    100.00% |           0      0.00%    100.00% |           0      0.00%    100.00% |           0      0.00%    100.00% |           0      0.00%    100.00% |           0      0.00%    100.00% |           0      0.00%    100.00% |           0      0.00%    100.00%
system.ruby.ST.hit_latency_hist_seqr::total          233                      
system.ruby.ST.latency_hist_seqr::bucket_size            1                      
system.ruby.ST.latency_hist_seqr::max_bucket            9                      
system.ruby.ST.latency_hist_seqr::samples          233                      
system.ruby.ST.latency_hist_seqr::mean       0.004292                      
system.ruby.ST.latency_hist_seqr::stdev      0.065512                      
system.ruby.ST.latency_hist_seqr         |         232     99.57%     99.57% |           1      0.43%    100.00% |           0      0.00%    100.00% |           0      0.00%    100.00% |           0      0.00%    100.00% |           0      0.00%    100.00% |           0      0.00%    100.00% |           0      0.00%    100.00% |           0      0.00%    100.00% |           0      0.00%    100.00%
system.ruby.ST.latency_hist_seqr::total           233                      
system.ruby.dir_cntrl0.forwardToDir.avg_buf_msgs     0.050000                       # Average number of messages in buffer
system.ruby.dir_cntrl0.forwardToDir.avg_stall_time  5097.504025                       # Average number of cycles messages are stalled in this MB
system.ruby.dir_cntrl0.requestToDir.avg_buf_msgs     0.050000                       # Average number of messages in buffer
system.ruby.dir_cntrl0.requestToDir.avg_stall_time  5565.019350                       # Average number of cycles messages are stalled in this MB
system.ruby.dir_cntrl0.responseToDir.avg_buf_msgs     0.035000                       # Average number of messages in buffer
system.ruby.dir_cntrl0.responseToDir.avg_stall_time  8822.586774                       # Average number of cycles messages are stalled in this MB
system.ruby.dir_cntrl1.forwardToDir.avg_buf_msgs     0.069999                       # Average number of messages in buffer
system.ruby.dir_cntrl1.forwardToDir.avg_stall_time  6607.518925                       # Average number of cycles messages are stalled in this MB
system.ruby.dir_cntrl1.requestToDir.avg_buf_msgs     0.069999                       # Average number of messages in buffer
system.ruby.dir_cntrl1.requestToDir.avg_stall_time  5725.017750                       # Average number of cycles messages are stalled in this MB
system.ruby.dir_cntrl1.responseToDir.avg_buf_msgs     0.050009                       # Average number of messages in buffer
system.ruby.dir_cntrl1.responseToDir.avg_stall_time 10930.180698                       # Average number of cycles messages are stalled in this MB
system.ruby.dir_cntrl10.forwardToDir.avg_buf_msgs     0.040000                       # Average number of messages in buffer
system.ruby.dir_cntrl10.forwardToDir.avg_stall_time  5347.501525                       # Average number of cycles messages are stalled in this MB
system.ruby.dir_cntrl10.requestToDir.avg_buf_msgs     0.079999                       # Average number of messages in buffer
system.ruby.dir_cntrl10.requestToDir.avg_stall_time  5305.011950                       # Average number of cycles messages are stalled in this MB
system.ruby.dir_cntrl10.responseToDir.avg_buf_msgs     0.059999                       # Average number of messages in buffer
system.ruby.dir_cntrl10.responseToDir.avg_stall_time  9127.603724                       # Average number of cycles messages are stalled in this MB
system.ruby.dir_cntrl11.forwardToDir.avg_buf_msgs     0.035000                       # Average number of messages in buffer
system.ruby.dir_cntrl11.forwardToDir.avg_stall_time  5124.993750                       # Average number of cycles messages are stalled in this MB
system.ruby.dir_cntrl11.requestToDir.avg_buf_msgs     0.054999                       # Average number of messages in buffer
system.ruby.dir_cntrl11.requestToDir.avg_stall_time  4779.992200                       # Average number of cycles messages are stalled in this MB
system.ruby.dir_cntrl11.responseToDir.avg_buf_msgs     0.064999                       # Average number of messages in buffer
system.ruby.dir_cntrl11.responseToDir.avg_stall_time 12377.496225                       # Average number of cycles messages are stalled in this MB
system.ruby.dir_cntrl12.forwardToDir.avg_buf_msgs     0.054999                       # Average number of messages in buffer
system.ruby.dir_cntrl12.forwardToDir.avg_stall_time  6462.510375                       # Average number of cycles messages are stalled in this MB
system.ruby.dir_cntrl12.requestToDir.avg_buf_msgs     0.079999                       # Average number of messages in buffer
system.ruby.dir_cntrl12.requestToDir.avg_stall_time  5375.026250                       # Average number of cycles messages are stalled in this MB
system.ruby.dir_cntrl12.responseToDir.avg_buf_msgs     0.059999                       # Average number of messages in buffer
system.ruby.dir_cntrl12.responseToDir.avg_stall_time  9044.999550                       # Average number of cycles messages are stalled in this MB
system.ruby.dir_cntrl13.forwardToDir.avg_buf_msgs     0.074999                       # Average number of messages in buffer
system.ruby.dir_cntrl13.forwardToDir.avg_stall_time  5930.015700                       # Average number of cycles messages are stalled in this MB
system.ruby.dir_cntrl13.requestToDir.avg_buf_msgs     0.079999                       # Average number of messages in buffer
system.ruby.dir_cntrl13.requestToDir.avg_stall_time  5495.015050                       # Average number of cycles messages are stalled in this MB
system.ruby.dir_cntrl13.responseToDir.avg_buf_msgs     0.045000                       # Average number of messages in buffer
system.ruby.dir_cntrl13.responseToDir.avg_stall_time  9960.025400                       # Average number of cycles messages are stalled in this MB
system.ruby.dir_cntrl14.forwardToDir.avg_buf_msgs     0.079999                       # Average number of messages in buffer
system.ruby.dir_cntrl14.forwardToDir.avg_stall_time  5422.500775                       # Average number of cycles messages are stalled in this MB
system.ruby.dir_cntrl14.requestToDir.avg_buf_msgs     0.035000                       # Average number of messages in buffer
system.ruby.dir_cntrl14.requestToDir.avg_stall_time  5787.522125                       # Average number of cycles messages are stalled in this MB
system.ruby.dir_cntrl14.responseToDir.avg_buf_msgs     0.069999                       # Average number of messages in buffer
system.ruby.dir_cntrl14.responseToDir.avg_stall_time  9320.011800                       # Average number of cycles messages are stalled in this MB
system.ruby.dir_cntrl15.forwardToDir.avg_buf_msgs     0.064999                       # Average number of messages in buffer
system.ruby.dir_cntrl15.forwardToDir.avg_stall_time  6342.496575                       # Average number of cycles messages are stalled in this MB
system.ruby.dir_cntrl15.requestToDir.avg_buf_msgs     0.064999                       # Average number of messages in buffer
system.ruby.dir_cntrl15.requestToDir.avg_stall_time  5117.533825                       # Average number of cycles messages are stalled in this MB
system.ruby.dir_cntrl15.responseToDir.avg_buf_msgs     0.045000                       # Average number of messages in buffer
system.ruby.dir_cntrl15.responseToDir.avg_stall_time  9647.508525                       # Average number of cycles messages are stalled in this MB
system.ruby.dir_cntrl2.forwardToDir.avg_buf_msgs     0.045010                       # Average number of messages in buffer
system.ruby.dir_cntrl2.forwardToDir.avg_stall_time  4710.082899                       # Average number of cycles messages are stalled in this MB
system.ruby.dir_cntrl2.requestToDir.avg_buf_msgs     0.040000                       # Average number of messages in buffer
system.ruby.dir_cntrl2.requestToDir.avg_stall_time  6287.497125                       # Average number of cycles messages are stalled in this MB
system.ruby.dir_cntrl2.responseToDir.avg_buf_msgs     0.094999                       # Average number of messages in buffer
system.ruby.dir_cntrl2.responseToDir.avg_stall_time 10180.058199                       # Average number of cycles messages are stalled in this MB
system.ruby.dir_cntrl3.forwardToDir.avg_buf_msgs     0.059999                       # Average number of messages in buffer
system.ruby.dir_cntrl3.forwardToDir.avg_stall_time  6387.511125                       # Average number of cycles messages are stalled in this MB
system.ruby.dir_cntrl3.requestToDir.avg_buf_msgs     0.064999                       # Average number of messages in buffer
system.ruby.dir_cntrl3.requestToDir.avg_stall_time  6430.000700                       # Average number of cycles messages are stalled in this MB
system.ruby.dir_cntrl3.responseToDir.avg_buf_msgs     0.030000                       # Average number of messages in buffer
system.ruby.dir_cntrl3.responseToDir.avg_stall_time  9355.016450                       # Average number of cycles messages are stalled in this MB
system.ruby.dir_cntrl4.forwardToDir.avg_buf_msgs     0.059999                       # Average number of messages in buffer
system.ruby.dir_cntrl4.forwardToDir.avg_stall_time  6415.025850                       # Average number of cycles messages are stalled in this MB
system.ruby.dir_cntrl4.requestToDir.avg_buf_msgs     0.050000                       # Average number of messages in buffer
system.ruby.dir_cntrl4.requestToDir.avg_stall_time  5335.016650                       # Average number of cycles messages are stalled in this MB
system.ruby.dir_cntrl4.responseToDir.avg_buf_msgs     0.074999                       # Average number of messages in buffer
system.ruby.dir_cntrl4.responseToDir.avg_stall_time 11010.024900                       # Average number of cycles messages are stalled in this MB
system.ruby.dir_cntrl5.forwardToDir.avg_buf_msgs     0.074999                       # Average number of messages in buffer
system.ruby.dir_cntrl5.forwardToDir.avg_stall_time  5495.010050                       # Average number of cycles messages are stalled in this MB
system.ruby.dir_cntrl5.requestToDir.avg_buf_msgs     0.069999                       # Average number of messages in buffer
system.ruby.dir_cntrl5.requestToDir.avg_stall_time  5685.013150                       # Average number of cycles messages are stalled in this MB
system.ruby.dir_cntrl5.responseToDir.avg_buf_msgs     0.060009                       # Average number of messages in buffer
system.ruby.dir_cntrl5.responseToDir.avg_stall_time  9555.009450                       # Average number of cycles messages are stalled in this MB
system.ruby.dir_cntrl6.forwardToDir.avg_buf_msgs     0.069999                       # Average number of messages in buffer
system.ruby.dir_cntrl6.forwardToDir.avg_stall_time  5017.514825                       # Average number of cycles messages are stalled in this MB
system.ruby.dir_cntrl6.requestToDir.avg_buf_msgs     0.064999                       # Average number of messages in buffer
system.ruby.dir_cntrl6.requestToDir.avg_stall_time  5230.047700                       # Average number of cycles messages are stalled in this MB
system.ruby.dir_cntrl6.responseToDir.avg_buf_msgs     0.074999                       # Average number of messages in buffer
system.ruby.dir_cntrl6.responseToDir.avg_stall_time 10147.478525                       # Average number of cycles messages are stalled in this MB
system.ruby.dir_cntrl7.forwardToDir.avg_buf_msgs     0.025000                       # Average number of messages in buffer
system.ruby.dir_cntrl7.forwardToDir.avg_stall_time  5034.984650                       # Average number of cycles messages are stalled in this MB
system.ruby.dir_cntrl7.requestToDir.avg_buf_msgs     0.064999                       # Average number of messages in buffer
system.ruby.dir_cntrl7.requestToDir.avg_stall_time  6035.029650                       # Average number of cycles messages are stalled in this MB
system.ruby.dir_cntrl7.responseToDir.avg_buf_msgs     0.040010                       # Average number of messages in buffer
system.ruby.dir_cntrl7.responseToDir.avg_stall_time  7317.516825                       # Average number of cycles messages are stalled in this MB
system.ruby.dir_cntrl8.forwardToDir.avg_buf_msgs     0.079999                       # Average number of messages in buffer
system.ruby.dir_cntrl8.forwardToDir.avg_stall_time  5224.992750                       # Average number of cycles messages are stalled in this MB
system.ruby.dir_cntrl8.requestToDir.avg_buf_msgs     0.109999                       # Average number of messages in buffer
system.ruby.dir_cntrl8.requestToDir.avg_stall_time  6172.513275                       # Average number of cycles messages are stalled in this MB
system.ruby.dir_cntrl8.responseToDir.avg_buf_msgs     0.045000                       # Average number of messages in buffer
system.ruby.dir_cntrl8.responseToDir.avg_stall_time  9870.061299                       # Average number of cycles messages are stalled in this MB
system.ruby.dir_cntrl9.forwardToDir.avg_buf_msgs     0.070009                       # Average number of messages in buffer
system.ruby.dir_cntrl9.forwardToDir.avg_stall_time  5302.506975                       # Average number of cycles messages are stalled in this MB
system.ruby.dir_cntrl9.requestToDir.avg_buf_msgs     0.064999                       # Average number of messages in buffer
system.ruby.dir_cntrl9.requestToDir.avg_stall_time  5247.502525                       # Average number of cycles messages are stalled in this MB
system.ruby.dir_cntrl9.responseToDir.avg_buf_msgs     0.069999                       # Average number of messages in buffer
system.ruby.dir_cntrl9.responseToDir.avg_stall_time 10060.054399                       # Average number of cycles messages are stalled in this MB
system.ruby.hit_latency_hist_seqr::bucket_size            1                      
system.ruby.hit_latency_hist_seqr::max_bucket            9                      
system.ruby.hit_latency_hist_seqr::samples          667                      
system.ruby.hit_latency_hist_seqr::mean      0.008996                      
system.ruby.hit_latency_hist_seqr::stdev     0.094488                      
system.ruby.hit_latency_hist_seqr        |         661     99.10%     99.10% |           6      0.90%    100.00% |           0      0.00%    100.00% |           0      0.00%    100.00% |           0      0.00%    100.00% |           0      0.00%    100.00% |           0      0.00%    100.00% |           0      0.00%    100.00% |           0      0.00%    100.00% |           0      0.00%    100.00%
system.ruby.hit_latency_hist_seqr::total          667                      
system.ruby.l1_cntrl0.cacheMemory.demand_accesses            0                       # Number of cache demand accesses
system.ruby.l1_cntrl0.cacheMemory.demand_hits            0                       # Number of cache demand hits
system.ruby.l1_cntrl0.cacheMemory.demand_misses            0                       # Number of cache demand misses
system.ruby.l1_cntrl0.forwardFromCache.avg_buf_msgs     0.089999                       # Average number of messages in buffer
system.ruby.l1_cntrl0.forwardFromCache.avg_stall_time   865.001350                       # Average number of cycles messages are stalled in this MB
system.ruby.l1_cntrl0.mandatoryQueue.avg_buf_msgs     0.214998                       # Average number of messages in buffer
system.ruby.l1_cntrl0.mandatoryQueue.avg_stall_time   477.500225                       # Average number of cycles messages are stalled in this MB
system.ruby.l1_cntrl0.requestFromCache.avg_buf_msgs     0.149999                       # Average number of messages in buffer
system.ruby.l1_cntrl0.requestFromCache.avg_stall_time   945.000550                       # Average number of cycles messages are stalled in this MB
system.ruby.l1_cntrl0.responseFromCache.avg_buf_msgs     0.189998                       # Average number of messages in buffer
system.ruby.l1_cntrl0.responseFromCache.avg_stall_time   895.001050                       # Average number of cycles messages are stalled in this MB
system.ruby.l1_cntrl1.cacheMemory.demand_accesses            0                       # Number of cache demand accesses
system.ruby.l1_cntrl1.cacheMemory.demand_hits            0                       # Number of cache demand hits
system.ruby.l1_cntrl1.cacheMemory.demand_misses            0                       # Number of cache demand misses
system.ruby.l1_cntrl1.forwardFromCache.avg_buf_msgs     0.145009                       # Average number of messages in buffer
system.ruby.l1_cntrl1.forwardFromCache.avg_stall_time   875.001250                       # Average number of cycles messages are stalled in this MB
system.ruby.l1_cntrl1.mandatoryQueue.avg_buf_msgs     0.170008                       # Average number of messages in buffer
system.ruby.l1_cntrl1.mandatoryQueue.avg_stall_time   492.500075                       # Average number of cycles messages are stalled in this MB
system.ruby.l1_cntrl1.requestFromCache.avg_buf_msgs     0.119999                       # Average number of messages in buffer
system.ruby.l1_cntrl1.requestFromCache.avg_stall_time   975.000250                       # Average number of cycles messages are stalled in this MB
system.ruby.l1_cntrl1.responseFromCache.avg_buf_msgs     0.069999                       # Average number of messages in buffer
system.ruby.l1_cntrl1.responseFromCache.avg_stall_time   805.001950                       # Average number of cycles messages are stalled in this MB
system.ruby.l1_cntrl10.cacheMemory.demand_accesses            0                       # Number of cache demand accesses
system.ruby.l1_cntrl10.cacheMemory.demand_hits            0                       # Number of cache demand hits
system.ruby.l1_cntrl10.cacheMemory.demand_misses            0                       # Number of cache demand misses
system.ruby.l1_cntrl10.forwardFromCache.avg_buf_msgs     0.219998                       # Average number of messages in buffer
system.ruby.l1_cntrl10.forwardFromCache.avg_stall_time   975.000250                       # Average number of cycles messages are stalled in this MB
system.ruby.l1_cntrl10.mandatoryQueue.avg_buf_msgs     0.254997                       # Average number of messages in buffer
system.ruby.l1_cntrl10.mandatoryQueue.avg_stall_time   492.500075                       # Average number of cycles messages are stalled in this MB
system.ruby.l1_cntrl10.requestFromCache.avg_buf_msgs     0.159998                       # Average number of messages in buffer
system.ruby.l1_cntrl10.requestFromCache.avg_stall_time   875.001250                       # Average number of cycles messages are stalled in this MB
system.ruby.l1_cntrl10.responseFromCache.avg_buf_msgs     0.129999                       # Average number of messages in buffer
system.ruby.l1_cntrl10.responseFromCache.avg_stall_time   915.000850                       # Average number of cycles messages are stalled in this MB
system.ruby.l1_cntrl11.cacheMemory.demand_accesses            0                       # Number of cache demand accesses
system.ruby.l1_cntrl11.cacheMemory.demand_hits            0                       # Number of cache demand hits
system.ruby.l1_cntrl11.cacheMemory.demand_misses            0                       # Number of cache demand misses
system.ruby.l1_cntrl11.forwardFromCache.avg_buf_msgs     0.169998                       # Average number of messages in buffer
system.ruby.l1_cntrl11.forwardFromCache.avg_stall_time   965.000350                       # Average number of cycles messages are stalled in this MB
system.ruby.l1_cntrl11.mandatoryQueue.avg_buf_msgs     0.234998                       # Average number of messages in buffer
system.ruby.l1_cntrl11.mandatoryQueue.avg_stall_time   497.500025                       # Average number of cycles messages are stalled in this MB
system.ruby.l1_cntrl11.requestFromCache.avg_buf_msgs     0.099999                       # Average number of messages in buffer
system.ruby.l1_cntrl11.requestFromCache.avg_stall_time   985.000150                       # Average number of cycles messages are stalled in this MB
system.ruby.l1_cntrl11.responseFromCache.avg_buf_msgs     0.199998                       # Average number of messages in buffer
system.ruby.l1_cntrl11.responseFromCache.avg_stall_time   975.000250                       # Average number of cycles messages are stalled in this MB
system.ruby.l1_cntrl12.cacheMemory.demand_accesses            0                       # Number of cache demand accesses
system.ruby.l1_cntrl12.cacheMemory.demand_hits            0                       # Number of cache demand hits
system.ruby.l1_cntrl12.cacheMemory.demand_misses            0                       # Number of cache demand misses
system.ruby.l1_cntrl12.forwardFromCache.avg_buf_msgs     0.139999                       # Average number of messages in buffer
system.ruby.l1_cntrl12.forwardFromCache.avg_stall_time   985.000150                       # Average number of cycles messages are stalled in this MB
system.ruby.l1_cntrl12.mandatoryQueue.avg_buf_msgs     0.200008                       # Average number of messages in buffer
system.ruby.l1_cntrl12.mandatoryQueue.avg_stall_time   497.500025                       # Average number of cycles messages are stalled in this MB
system.ruby.l1_cntrl12.requestFromCache.avg_buf_msgs     0.119999                       # Average number of messages in buffer
system.ruby.l1_cntrl12.requestFromCache.avg_stall_time   915.000850                       # Average number of cycles messages are stalled in this MB
system.ruby.l1_cntrl12.responseFromCache.avg_buf_msgs     0.139999                       # Average number of messages in buffer
system.ruby.l1_cntrl12.responseFromCache.avg_stall_time   955.000450                       # Average number of cycles messages are stalled in this MB
system.ruby.l1_cntrl13.cacheMemory.demand_accesses            0                       # Number of cache demand accesses
system.ruby.l1_cntrl13.cacheMemory.demand_hits            0                       # Number of cache demand hits
system.ruby.l1_cntrl13.cacheMemory.demand_misses            0                       # Number of cache demand misses
system.ruby.l1_cntrl13.forwardFromCache.avg_buf_msgs     0.079999                       # Average number of messages in buffer
system.ruby.l1_cntrl13.forwardFromCache.avg_stall_time   955.000450                       # Average number of cycles messages are stalled in this MB
system.ruby.l1_cntrl13.mandatoryQueue.avg_buf_msgs     0.195008                       # Average number of messages in buffer
system.ruby.l1_cntrl13.mandatoryQueue.avg_stall_time   497.500025                       # Average number of cycles messages are stalled in this MB
system.ruby.l1_cntrl13.requestFromCache.avg_buf_msgs     0.129999                       # Average number of messages in buffer
system.ruby.l1_cntrl13.requestFromCache.avg_stall_time   985.000150                       # Average number of cycles messages are stalled in this MB
system.ruby.l1_cntrl13.responseFromCache.avg_buf_msgs     0.179998                       # Average number of messages in buffer
system.ruby.l1_cntrl13.responseFromCache.avg_stall_time   845.001550                       # Average number of cycles messages are stalled in this MB
system.ruby.l1_cntrl14.cacheMemory.demand_accesses            0                       # Number of cache demand accesses
system.ruby.l1_cntrl14.cacheMemory.demand_hits            0                       # Number of cache demand hits
system.ruby.l1_cntrl14.cacheMemory.demand_misses            0                       # Number of cache demand misses
system.ruby.l1_cntrl14.forwardFromCache.avg_buf_msgs     0.129999                       # Average number of messages in buffer
system.ruby.l1_cntrl14.forwardFromCache.avg_stall_time   815.001850                       # Average number of cycles messages are stalled in this MB
system.ruby.l1_cntrl14.mandatoryQueue.avg_buf_msgs     0.200008                       # Average number of messages in buffer
system.ruby.l1_cntrl14.mandatoryQueue.avg_stall_time   497.500025                       # Average number of cycles messages are stalled in this MB
system.ruby.l1_cntrl14.requestFromCache.avg_buf_msgs     0.109999                       # Average number of messages in buffer
system.ruby.l1_cntrl14.requestFromCache.avg_stall_time   845.001550                       # Average number of cycles messages are stalled in this MB
system.ruby.l1_cntrl14.responseFromCache.avg_buf_msgs     0.159998                       # Average number of messages in buffer
system.ruby.l1_cntrl14.responseFromCache.avg_stall_time   985.000150                       # Average number of cycles messages are stalled in this MB
system.ruby.l1_cntrl15.cacheMemory.demand_accesses            0                       # Number of cache demand accesses
system.ruby.l1_cntrl15.cacheMemory.demand_hits            0                       # Number of cache demand hits
system.ruby.l1_cntrl15.cacheMemory.demand_misses            0                       # Number of cache demand misses
system.ruby.l1_cntrl15.forwardFromCache.avg_buf_msgs     0.149999                       # Average number of messages in buffer
system.ruby.l1_cntrl15.forwardFromCache.avg_stall_time   915.000850                       # Average number of cycles messages are stalled in this MB
system.ruby.l1_cntrl15.mandatoryQueue.avg_buf_msgs     0.179998                       # Average number of messages in buffer
system.ruby.l1_cntrl15.mandatoryQueue.avg_stall_time   487.500125                       # Average number of cycles messages are stalled in this MB
system.ruby.l1_cntrl15.requestFromCache.avg_buf_msgs     0.149999                       # Average number of messages in buffer
system.ruby.l1_cntrl15.requestFromCache.avg_stall_time   965.000350                       # Average number of cycles messages are stalled in this MB
system.ruby.l1_cntrl15.responseFromCache.avg_buf_msgs     0.059999                       # Average number of messages in buffer
system.ruby.l1_cntrl15.responseFromCache.avg_stall_time   875.001250                       # Average number of cycles messages are stalled in this MB
system.ruby.l1_cntrl2.cacheMemory.demand_accesses            0                       # Number of cache demand accesses
system.ruby.l1_cntrl2.cacheMemory.demand_hits            0                       # Number of cache demand hits
system.ruby.l1_cntrl2.cacheMemory.demand_misses            0                       # Number of cache demand misses
system.ruby.l1_cntrl2.forwardFromCache.avg_buf_msgs     0.099999                       # Average number of messages in buffer
system.ruby.l1_cntrl2.forwardFromCache.avg_stall_time   905.000950                       # Average number of cycles messages are stalled in this MB
system.ruby.l1_cntrl2.mandatoryQueue.avg_buf_msgs     0.190008                       # Average number of messages in buffer
system.ruby.l1_cntrl2.mandatoryQueue.avg_stall_time   497.500025                       # Average number of cycles messages are stalled in this MB
system.ruby.l1_cntrl2.requestFromCache.avg_buf_msgs     0.189998                       # Average number of messages in buffer
system.ruby.l1_cntrl2.requestFromCache.avg_stall_time   985.000150                       # Average number of cycles messages are stalled in this MB
system.ruby.l1_cntrl2.responseFromCache.avg_buf_msgs     0.085009                       # Average number of messages in buffer
system.ruby.l1_cntrl2.responseFromCache.avg_stall_time   925.000750                       # Average number of cycles messages are stalled in this MB
system.ruby.l1_cntrl3.cacheMemory.demand_accesses            0                       # Number of cache demand accesses
system.ruby.l1_cntrl3.cacheMemory.demand_hits            0                       # Number of cache demand hits
system.ruby.l1_cntrl3.cacheMemory.demand_misses            0                       # Number of cache demand misses
system.ruby.l1_cntrl3.forwardFromCache.avg_buf_msgs     0.119999                       # Average number of messages in buffer
system.ruby.l1_cntrl3.forwardFromCache.avg_stall_time   815.001850                       # Average number of cycles messages are stalled in this MB
system.ruby.l1_cntrl3.mandatoryQueue.avg_buf_msgs     0.189998                       # Average number of messages in buffer
system.ruby.l1_cntrl3.mandatoryQueue.avg_stall_time   477.500225                       # Average number of cycles messages are stalled in this MB
system.ruby.l1_cntrl3.requestFromCache.avg_buf_msgs     0.139999                       # Average number of messages in buffer
system.ruby.l1_cntrl3.requestFromCache.avg_stall_time   925.000750                       # Average number of cycles messages are stalled in this MB
system.ruby.l1_cntrl3.responseFromCache.avg_buf_msgs     0.119999                       # Average number of messages in buffer
system.ruby.l1_cntrl3.responseFromCache.avg_stall_time   945.000550                       # Average number of cycles messages are stalled in this MB
system.ruby.l1_cntrl4.cacheMemory.demand_accesses            0                       # Number of cache demand accesses
system.ruby.l1_cntrl4.cacheMemory.demand_hits            0                       # Number of cache demand hits
system.ruby.l1_cntrl4.cacheMemory.demand_misses            0                       # Number of cache demand misses
system.ruby.l1_cntrl4.forwardFromCache.avg_buf_msgs     0.139999                       # Average number of messages in buffer
system.ruby.l1_cntrl4.forwardFromCache.avg_stall_time   875.001250                       # Average number of cycles messages are stalled in this MB
system.ruby.l1_cntrl4.mandatoryQueue.avg_buf_msgs     0.195008                       # Average number of messages in buffer
system.ruby.l1_cntrl4.mandatoryQueue.avg_stall_time   497.500025                       # Average number of cycles messages are stalled in this MB
system.ruby.l1_cntrl4.requestFromCache.avg_buf_msgs     0.129999                       # Average number of messages in buffer
system.ruby.l1_cntrl4.requestFromCache.avg_stall_time   985.000150                       # Average number of cycles messages are stalled in this MB
system.ruby.l1_cntrl4.responseFromCache.avg_buf_msgs     0.119999                       # Average number of messages in buffer
system.ruby.l1_cntrl4.responseFromCache.avg_stall_time   965.000350                       # Average number of cycles messages are stalled in this MB
system.ruby.l1_cntrl5.cacheMemory.demand_accesses            0                       # Number of cache demand accesses
system.ruby.l1_cntrl5.cacheMemory.demand_hits            0                       # Number of cache demand hits
system.ruby.l1_cntrl5.cacheMemory.demand_misses            0                       # Number of cache demand misses
system.ruby.l1_cntrl5.forwardFromCache.avg_buf_msgs     0.125009                       # Average number of messages in buffer
system.ruby.l1_cntrl5.forwardFromCache.avg_stall_time   925.000750                       # Average number of cycles messages are stalled in this MB
system.ruby.l1_cntrl5.mandatoryQueue.avg_buf_msgs     0.224998                       # Average number of messages in buffer
system.ruby.l1_cntrl5.mandatoryQueue.avg_stall_time   477.500225                       # Average number of cycles messages are stalled in this MB
system.ruby.l1_cntrl5.requestFromCache.avg_buf_msgs     0.139999                       # Average number of messages in buffer
system.ruby.l1_cntrl5.requestFromCache.avg_stall_time   855.001450                       # Average number of cycles messages are stalled in this MB
system.ruby.l1_cntrl5.responseFromCache.avg_buf_msgs     0.179998                       # Average number of messages in buffer
system.ruby.l1_cntrl5.responseFromCache.avg_stall_time   945.000550                       # Average number of cycles messages are stalled in this MB
system.ruby.l1_cntrl6.cacheMemory.demand_accesses            0                       # Number of cache demand accesses
system.ruby.l1_cntrl6.cacheMemory.demand_hits            0                       # Number of cache demand hits
system.ruby.l1_cntrl6.cacheMemory.demand_misses            0                       # Number of cache demand misses
system.ruby.l1_cntrl6.forwardFromCache.avg_buf_msgs     0.089999                       # Average number of messages in buffer
system.ruby.l1_cntrl6.forwardFromCache.avg_stall_time   895.001050                       # Average number of cycles messages are stalled in this MB
system.ruby.l1_cntrl6.mandatoryQueue.avg_buf_msgs     0.214998                       # Average number of messages in buffer
system.ruby.l1_cntrl6.mandatoryQueue.avg_stall_time   492.500075                       # Average number of cycles messages are stalled in this MB
system.ruby.l1_cntrl6.requestFromCache.avg_buf_msgs     0.205008                       # Average number of messages in buffer
system.ruby.l1_cntrl6.requestFromCache.avg_stall_time   975.000250                       # Average number of cycles messages are stalled in this MB
system.ruby.l1_cntrl6.responseFromCache.avg_buf_msgs     0.129999                       # Average number of messages in buffer
system.ruby.l1_cntrl6.responseFromCache.avg_stall_time   965.000350                       # Average number of cycles messages are stalled in this MB
system.ruby.l1_cntrl7.cacheMemory.demand_accesses            0                       # Number of cache demand accesses
system.ruby.l1_cntrl7.cacheMemory.demand_hits            0                       # Number of cache demand hits
system.ruby.l1_cntrl7.cacheMemory.demand_misses            0                       # Number of cache demand misses
system.ruby.l1_cntrl7.forwardFromCache.avg_buf_msgs     0.089999                       # Average number of messages in buffer
system.ruby.l1_cntrl7.forwardFromCache.avg_stall_time   795.002050                       # Average number of cycles messages are stalled in this MB
system.ruby.l1_cntrl7.mandatoryQueue.avg_buf_msgs     0.175008                       # Average number of messages in buffer
system.ruby.l1_cntrl7.mandatoryQueue.avg_stall_time   492.500075                       # Average number of cycles messages are stalled in this MB
system.ruby.l1_cntrl7.requestFromCache.avg_buf_msgs     0.099999                       # Average number of messages in buffer
system.ruby.l1_cntrl7.requestFromCache.avg_stall_time   825.001750                       # Average number of cycles messages are stalled in this MB
system.ruby.l1_cntrl7.responseFromCache.avg_buf_msgs     0.159998                       # Average number of messages in buffer
system.ruby.l1_cntrl7.responseFromCache.avg_stall_time   975.000250                       # Average number of cycles messages are stalled in this MB
system.ruby.l1_cntrl8.cacheMemory.demand_accesses            0                       # Number of cache demand accesses
system.ruby.l1_cntrl8.cacheMemory.demand_hits            0                       # Number of cache demand hits
system.ruby.l1_cntrl8.cacheMemory.demand_misses            0                       # Number of cache demand misses
system.ruby.l1_cntrl8.forwardFromCache.avg_buf_msgs     0.149999                       # Average number of messages in buffer
system.ruby.l1_cntrl8.forwardFromCache.avg_stall_time   925.000750                       # Average number of cycles messages are stalled in this MB
system.ruby.l1_cntrl8.mandatoryQueue.avg_buf_msgs     0.245008                       # Average number of messages in buffer
system.ruby.l1_cntrl8.mandatoryQueue.avg_stall_time   492.500075                       # Average number of cycles messages are stalled in this MB
system.ruby.l1_cntrl8.requestFromCache.avg_buf_msgs     0.155008                       # Average number of messages in buffer
system.ruby.l1_cntrl8.requestFromCache.avg_stall_time   975.000250                       # Average number of cycles messages are stalled in this MB
system.ruby.l1_cntrl8.responseFromCache.avg_buf_msgs     0.179998                       # Average number of messages in buffer
system.ruby.l1_cntrl8.responseFromCache.avg_stall_time   905.000950                       # Average number of cycles messages are stalled in this MB
system.ruby.l1_cntrl9.cacheMemory.demand_accesses            0                       # Number of cache demand accesses
system.ruby.l1_cntrl9.cacheMemory.demand_hits            0                       # Number of cache demand hits
system.ruby.l1_cntrl9.cacheMemory.demand_misses            0                       # Number of cache demand misses
system.ruby.l1_cntrl9.forwardFromCache.avg_buf_msgs     0.119999                       # Average number of messages in buffer
system.ruby.l1_cntrl9.forwardFromCache.avg_stall_time   975.000250                       # Average number of cycles messages are stalled in this MB
system.ruby.l1_cntrl9.mandatoryQueue.avg_buf_msgs     0.250007                       # Average number of messages in buffer
system.ruby.l1_cntrl9.mandatoryQueue.avg_stall_time   492.500075                       # Average number of cycles messages are stalled in this MB
system.ruby.l1_cntrl9.requestFromCache.avg_buf_msgs     0.159998                       # Average number of messages in buffer
system.ruby.l1_cntrl9.requestFromCache.avg_stall_time   935.000650                       # Average number of cycles messages are stalled in this MB
system.ruby.l1_cntrl9.responseFromCache.avg_buf_msgs     0.215008                       # Average number of messages in buffer
system.ruby.l1_cntrl9.responseFromCache.avg_stall_time   895.001050                       # Average number of cycles messages are stalled in this MB
system.ruby.latency_hist_seqr::bucket_size            1                      
system.ruby.latency_hist_seqr::max_bucket            9                      
system.ruby.latency_hist_seqr::samples            667                      
system.ruby.latency_hist_seqr::mean          0.008996                      
system.ruby.latency_hist_seqr::stdev         0.094488                      
system.ruby.latency_hist_seqr            |         661     99.10%     99.10% |           6      0.90%    100.00% |           0      0.00%    100.00% |           0      0.00%    100.00% |           0      0.00%    100.00% |           0      0.00%    100.00% |           0      0.00%    100.00% |           0      0.00%    100.00% |           0      0.00%    100.00% |           0      0.00%    100.00%
system.ruby.latency_hist_seqr::total              667                      
system.ruby.network.average_flit_latency  7757.790368                      
system.ruby.network.average_flit_network_latency  6757.790368                      
system.ruby.network.average_flit_queueing_latency         1000                      
system.ruby.network.average_flit_vnet_latency | 4423.444976                       | 4538.860104                       | 7664.851485                      
system.ruby.network.average_flit_vqueue_latency |        1000                       |        1000                       |        1000                      
system.ruby.network.average_hops             2.450425                      
system.ruby.network.average_packet_latency  7514.431239                      
system.ruby.network.average_packet_network_latency  6514.431239                      
system.ruby.network.average_packet_queueing_latency         1000                      
system.ruby.network.average_packet_vnet_latency | 4423.444976                       | 4538.860104                       |10890.374332                      
system.ruby.network.average_packet_vqueue_latency |        1000                       |        1000                       |        1000                      
system.ruby.network.avg_link_utilization    33.230000                      
system.ruby.network.avg_vc_load          |    3.270000      9.84%      9.84% |    0.665000      2.00%     11.84% |    0.225000      0.68%     12.52% |    0.145000      0.44%     12.96% |    0.130000      0.39%     13.35% |    0.125000      0.38%     13.72% |    0.115000      0.35%     14.07% |    0.095000      0.29%     14.35% |    3.075000      9.25%     23.61% |    0.700000      2.11%     25.71% |    0.160000      0.48%     26.20% |    0.140000      0.42%     26.62% |    0.125000      0.38%     26.99% |    0.120000      0.36%     27.35% |    0.100000      0.30%     27.66% |    0.090000      0.27%     27.93% |   10.690000     32.17%     60.10% |    6.090000     18.33%     78.42% |    3.160000      9.51%     87.93% |    1.380000      4.15%     92.09% |    0.855000      2.57%     94.66% |    0.680000      2.05%     96.70% |    0.565000      1.70%     98.41% |    0.530000      1.59%    100.00%
system.ruby.network.avg_vc_load::total      33.230000                      
system.ruby.network.ext_in_link_utilization         1547                      
system.ruby.network.ext_out_link_utilization         1424                      
system.ruby.network.flit_network_latency |      924500                       |      876000                       |     7741500                      
system.ruby.network.flit_queueing_latency |      209000                       |      193000                       |     1010000                      
system.ruby.network.flits_injected       |         225     14.20%     14.20% |         205     12.93%     27.13% |        1155     72.87%    100.00%
system.ruby.network.flits_injected::total         1585                      
system.ruby.network.flits_received       |         209     14.80%     14.80% |         193     13.67%     28.47% |        1010     71.53%    100.00%
system.ruby.network.flits_received::total         1412                      
system.ruby.network.int_link_utilization         3675                      
system.ruby.network.packet_network_latency |      924500                       |      876000                       |     2036500                      
system.ruby.network.packet_queueing_latency |      209000                       |      193000                       |      187000                      
system.ruby.network.packets_injected     |         225     34.04%     34.04% |         205     31.01%     65.05% |         231     34.95%    100.00%
system.ruby.network.packets_injected::total          661                      
system.ruby.network.packets_received     |         209     35.48%     35.48% |         193     32.77%     68.25% |         187     31.75%    100.00%
system.ruby.network.packets_received::total          589                      
system.ruby.network.routers00.buffer_reads          186                      
system.ruby.network.routers00.buffer_writes          186                      
system.ruby.network.routers00.crossbar_activity          186                      
system.ruby.network.routers00.sw_input_arbiter_activity          198                      
system.ruby.network.routers00.sw_output_arbiter_activity          186                      
system.ruby.network.routers01.buffer_reads          298                      
system.ruby.network.routers01.buffer_writes          298                      
system.ruby.network.routers01.crossbar_activity          297                      
system.ruby.network.routers01.sw_input_arbiter_activity          330                      
system.ruby.network.routers01.sw_output_arbiter_activity          297                      
system.ruby.network.routers02.buffer_reads          322                      
system.ruby.network.routers02.buffer_writes          322                      
system.ruby.network.routers02.crossbar_activity          319                      
system.ruby.network.routers02.sw_input_arbiter_activity          375                      
system.ruby.network.routers02.sw_output_arbiter_activity          319                      
system.ruby.network.routers03.buffer_reads          198                      
system.ruby.network.routers03.buffer_writes          198                      
system.ruby.network.routers03.crossbar_activity          198                      
system.ruby.network.routers03.sw_input_arbiter_activity          211                      
system.ruby.network.routers03.sw_output_arbiter_activity          198                      
system.ruby.network.routers04.buffer_reads          298                      
system.ruby.network.routers04.buffer_writes          298                      
system.ruby.network.routers04.crossbar_activity          295                      
system.ruby.network.routers04.sw_input_arbiter_activity          363                      
system.ruby.network.routers04.sw_output_arbiter_activity          295                      
system.ruby.network.routers05.buffer_reads          479                      
system.ruby.network.routers05.buffer_writes          479                      
system.ruby.network.routers05.crossbar_activity          473                      
system.ruby.network.routers05.sw_input_arbiter_activity          557                      
system.ruby.network.routers05.sw_output_arbiter_activity          473                      
system.ruby.network.routers06.buffer_reads          465                      
system.ruby.network.routers06.buffer_writes          465                      
system.ruby.network.routers06.crossbar_activity          462                      
system.ruby.network.routers06.sw_input_arbiter_activity          564                      
system.ruby.network.routers06.sw_output_arbiter_activity          462                      
system.ruby.network.routers07.buffer_reads          297                      
system.ruby.network.routers07.buffer_writes          297                      
system.ruby.network.routers07.crossbar_activity          294                      
system.ruby.network.routers07.sw_input_arbiter_activity          338                      
system.ruby.network.routers07.sw_output_arbiter_activity          294                      
system.ruby.network.routers08.buffer_reads          329                      
system.ruby.network.routers08.buffer_writes          329                      
system.ruby.network.routers08.crossbar_activity          329                      
system.ruby.network.routers08.sw_input_arbiter_activity          373                      
system.ruby.network.routers08.sw_output_arbiter_activity          329                      
system.ruby.network.routers09.buffer_reads          511                      
system.ruby.network.routers09.buffer_writes          511                      
system.ruby.network.routers09.crossbar_activity          494                      
system.ruby.network.routers09.sw_input_arbiter_activity          627                      
system.ruby.network.routers09.sw_output_arbiter_activity          494                      
system.ruby.network.routers10.buffer_reads          486                      
system.ruby.network.routers10.buffer_writes          486                      
system.ruby.network.routers10.crossbar_activity          480                      
system.ruby.network.routers10.sw_input_arbiter_activity          614                      
system.ruby.network.routers10.sw_output_arbiter_activity          480                      
system.ruby.network.routers11.buffer_reads          326                      
system.ruby.network.routers11.buffer_writes          326                      
system.ruby.network.routers11.crossbar_activity          324                      
system.ruby.network.routers11.sw_input_arbiter_activity          374                      
system.ruby.network.routers11.sw_output_arbiter_activity          324                      
system.ruby.network.routers12.buffer_reads          207                      
system.ruby.network.routers12.buffer_writes          207                      
system.ruby.network.routers12.crossbar_activity          206                      
system.ruby.network.routers12.sw_input_arbiter_activity          219                      
system.ruby.network.routers12.sw_output_arbiter_activity          206                      
system.ruby.network.routers13.buffer_reads          314                      
system.ruby.network.routers13.buffer_writes          314                      
system.ruby.network.routers13.crossbar_activity          313                      
system.ruby.network.routers13.sw_input_arbiter_activity          369                      
system.ruby.network.routers13.sw_output_arbiter_activity          313                      
system.ruby.network.routers14.buffer_reads          306                      
system.ruby.network.routers14.buffer_writes          306                      
system.ruby.network.routers14.crossbar_activity          298                      
system.ruby.network.routers14.sw_input_arbiter_activity          366                      
system.ruby.network.routers14.sw_output_arbiter_activity          298                      
system.ruby.network.routers15.buffer_reads          163                      
system.ruby.network.routers15.buffer_writes          163                      
system.ruby.network.routers15.crossbar_activity          163                      
system.ruby.network.routers15.sw_input_arbiter_activity          168                      
system.ruby.network.routers15.sw_output_arbiter_activity          163                      
system.ruby.outstanding_req_hist_seqr::bucket_size            1                      
system.ruby.outstanding_req_hist_seqr::max_bucket            9                      
system.ruby.outstanding_req_hist_seqr::samples          676                      
system.ruby.outstanding_req_hist_seqr::mean            1                      
system.ruby.outstanding_req_hist_seqr::gmean            1                      
system.ruby.outstanding_req_hist_seqr    |           0      0.00%      0.00% |         676    100.00%    100.00% |           0      0.00%    100.00% |           0      0.00%    100.00% |           0      0.00%    100.00% |           0      0.00%    100.00% |           0      0.00%    100.00% |           0      0.00%    100.00% |           0      0.00%    100.00% |           0      0.00%    100.00%
system.ruby.outstanding_req_hist_seqr::total          676                      
system.clk_domain.clock                          1000                       # Clock period in ticks
system.cpu0.power_state.pwrStateResidencyTicks::UNDEFINED       100000                       # Cumulative time (in ticks) in various power states
system.cpu1.power_state.pwrStateResidencyTicks::UNDEFINED       100000                       # Cumulative time (in ticks) in various power states
system.cpu10.power_state.pwrStateResidencyTicks::UNDEFINED       100000                       # Cumulative time (in ticks) in various power states
system.cpu11.power_state.pwrStateResidencyTicks::UNDEFINED       100000                       # Cumulative time (in ticks) in various power states
system.cpu12.power_state.pwrStateResidencyTicks::UNDEFINED       100000                       # Cumulative time (in ticks) in various power states
system.cpu13.power_state.pwrStateResidencyTicks::UNDEFINED       100000                       # Cumulative time (in ticks) in various power states
system.cpu14.power_state.pwrStateResidencyTicks::UNDEFINED       100000                       # Cumulative time (in ticks) in various power states
system.cpu15.power_state.pwrStateResidencyTicks::UNDEFINED       100000                       # Cumulative time (in ticks) in various power states
system.cpu2.power_state.pwrStateResidencyTicks::UNDEFINED       100000                       # Cumulative time (in ticks) in various power states
system.cpu3.power_state.pwrStateResidencyTicks::UNDEFINED       100000                       # Cumulative time (in ticks) in various power states
system.cpu4.power_state.pwrStateResidencyTicks::UNDEFINED       100000                       # Cumulative time (in ticks) in various power states
system.cpu5.power_state.pwrStateResidencyTicks::UNDEFINED       100000                       # Cumulative time (in ticks) in various power states
system.cpu6.power_state.pwrStateResidencyTicks::UNDEFINED       100000                       # Cumulative time (in ticks) in various power states
system.cpu7.power_state.pwrStateResidencyTicks::UNDEFINED       100000                       # Cumulative time (in ticks) in various power states
system.cpu8.power_state.pwrStateResidencyTicks::UNDEFINED       100000                       # Cumulative time (in ticks) in various power states
system.cpu9.power_state.pwrStateResidencyTicks::UNDEFINED       100000                       # Cumulative time (in ticks) in various power states
system.mem_ctrls0.priorityMinLatency     0.000000000000                       # per QoS priority minimum request to response latency (s)
system.mem_ctrls0.priorityMaxLatency     0.000000000000                       # per QoS priority maximum request to response latency (s)
system.mem_ctrls0.numReadWriteTurnArounds            0                       # Number of turnarounds from READ to WRITE
system.mem_ctrls0.numWriteReadTurnArounds            0                       # Number of turnarounds from WRITE to READ
system.mem_ctrls0.numStayReadState                  0                       # Number of times bus staying in READ state
system.mem_ctrls0.numStayWriteState                 0                       # Number of times bus staying in WRITE state
system.mem_ctrls0.readReqs                          0                       # Number of read requests accepted
system.mem_ctrls0.writeReqs                         0                       # Number of write requests accepted
system.mem_ctrls0.readBursts                        0                       # Number of controller read bursts, including those serviced by the write queue
system.mem_ctrls0.writeBursts                       0                       # Number of controller write bursts, including those merged in the write queue
system.mem_ctrls0.servicedByWrQ                     0                       # Number of controller read bursts serviced by the write queue
system.mem_ctrls0.mergedWrBursts                    0                       # Number of controller write bursts merged with an existing one
system.mem_ctrls0.neitherReadNorWriteReqs            0                       # Number of requests that are neither read nor write
system.mem_ctrls0.avgRdQLen                      0.00                       # Average read queue length when enqueuing
system.mem_ctrls0.avgWrQLen                      0.00                       # Average write queue length when enqueuing
system.mem_ctrls0.numRdRetry                        0                       # Number of times read queue was full causing retry
system.mem_ctrls0.numWrRetry                        0                       # Number of times write queue was full causing retry
system.mem_ctrls0.readPktSize::0                    0                       # Read request sizes (log2)
system.mem_ctrls0.readPktSize::1                    0                       # Read request sizes (log2)
system.mem_ctrls0.readPktSize::2                    0                       # Read request sizes (log2)
system.mem_ctrls0.readPktSize::3                    0                       # Read request sizes (log2)
system.mem_ctrls0.readPktSize::4                    0                       # Read request sizes (log2)
system.mem_ctrls0.readPktSize::5                    0                       # Read request sizes (log2)
system.mem_ctrls0.readPktSize::6                    0                       # Read request sizes (log2)
system.mem_ctrls0.writePktSize::0                   0                       # Write request sizes (log2)
system.mem_ctrls0.writePktSize::1                   0                       # Write request sizes (log2)
system.mem_ctrls0.writePktSize::2                   0                       # Write request sizes (log2)
system.mem_ctrls0.writePktSize::3                   0                       # Write request sizes (log2)
system.mem_ctrls0.writePktSize::4                   0                       # Write request sizes (log2)
system.mem_ctrls0.writePktSize::5                   0                       # Write request sizes (log2)
system.mem_ctrls0.writePktSize::6                   0                       # Write request sizes (log2)
system.mem_ctrls0.rdQLenPdf::0                      0                       # What read queue length does an incoming req see
system.mem_ctrls0.rdQLenPdf::1                      0                       # What read queue length does an incoming req see
system.mem_ctrls0.rdQLenPdf::2                      0                       # What read queue length does an incoming req see
system.mem_ctrls0.rdQLenPdf::3                      0                       # What read queue length does an incoming req see
system.mem_ctrls0.rdQLenPdf::4                      0                       # What read queue length does an incoming req see
system.mem_ctrls0.rdQLenPdf::5                      0                       # What read queue length does an incoming req see
system.mem_ctrls0.rdQLenPdf::6                      0                       # What read queue length does an incoming req see
system.mem_ctrls0.rdQLenPdf::7                      0                       # What read queue length does an incoming req see
system.mem_ctrls0.rdQLenPdf::8                      0                       # What read queue length does an incoming req see
system.mem_ctrls0.rdQLenPdf::9                      0                       # What read queue length does an incoming req see
system.mem_ctrls0.rdQLenPdf::10                     0                       # What read queue length does an incoming req see
system.mem_ctrls0.rdQLenPdf::11                     0                       # What read queue length does an incoming req see
system.mem_ctrls0.rdQLenPdf::12                     0                       # What read queue length does an incoming req see
system.mem_ctrls0.rdQLenPdf::13                     0                       # What read queue length does an incoming req see
system.mem_ctrls0.rdQLenPdf::14                     0                       # What read queue length does an incoming req see
system.mem_ctrls0.rdQLenPdf::15                     0                       # What read queue length does an incoming req see
system.mem_ctrls0.rdQLenPdf::16                     0                       # What read queue length does an incoming req see
system.mem_ctrls0.rdQLenPdf::17                     0                       # What read queue length does an incoming req see
system.mem_ctrls0.rdQLenPdf::18                     0                       # What read queue length does an incoming req see
system.mem_ctrls0.rdQLenPdf::19                     0                       # What read queue length does an incoming req see
system.mem_ctrls0.rdQLenPdf::20                     0                       # What read queue length does an incoming req see
system.mem_ctrls0.rdQLenPdf::21                     0                       # What read queue length does an incoming req see
system.mem_ctrls0.rdQLenPdf::22                     0                       # What read queue length does an incoming req see
system.mem_ctrls0.rdQLenPdf::23                     0                       # What read queue length does an incoming req see
system.mem_ctrls0.rdQLenPdf::24                     0                       # What read queue length does an incoming req see
system.mem_ctrls0.rdQLenPdf::25                     0                       # What read queue length does an incoming req see
system.mem_ctrls0.rdQLenPdf::26                     0                       # What read queue length does an incoming req see
system.mem_ctrls0.rdQLenPdf::27                     0                       # What read queue length does an incoming req see
system.mem_ctrls0.rdQLenPdf::28                     0                       # What read queue length does an incoming req see
system.mem_ctrls0.rdQLenPdf::29                     0                       # What read queue length does an incoming req see
system.mem_ctrls0.rdQLenPdf::30                     0                       # What read queue length does an incoming req see
system.mem_ctrls0.rdQLenPdf::31                     0                       # What read queue length does an incoming req see
system.mem_ctrls0.wrQLenPdf::0                      0                       # What write queue length does an incoming req see
system.mem_ctrls0.wrQLenPdf::1                      0                       # What write queue length does an incoming req see
system.mem_ctrls0.wrQLenPdf::2                      0                       # What write queue length does an incoming req see
system.mem_ctrls0.wrQLenPdf::3                      0                       # What write queue length does an incoming req see
system.mem_ctrls0.wrQLenPdf::4                      0                       # What write queue length does an incoming req see
system.mem_ctrls0.wrQLenPdf::5                      0                       # What write queue length does an incoming req see
system.mem_ctrls0.wrQLenPdf::6                      0                       # What write queue length does an incoming req see
system.mem_ctrls0.wrQLenPdf::7                      0                       # What write queue length does an incoming req see
system.mem_ctrls0.wrQLenPdf::8                      0                       # What write queue length does an incoming req see
system.mem_ctrls0.wrQLenPdf::9                      0                       # What write queue length does an incoming req see
system.mem_ctrls0.wrQLenPdf::10                     0                       # What write queue length does an incoming req see
system.mem_ctrls0.wrQLenPdf::11                     0                       # What write queue length does an incoming req see
system.mem_ctrls0.wrQLenPdf::12                     0                       # What write queue length does an incoming req see
system.mem_ctrls0.wrQLenPdf::13                     0                       # What write queue length does an incoming req see
system.mem_ctrls0.wrQLenPdf::14                     0                       # What write queue length does an incoming req see
system.mem_ctrls0.wrQLenPdf::15                     0                       # What write queue length does an incoming req see
system.mem_ctrls0.wrQLenPdf::16                     0                       # What write queue length does an incoming req see
system.mem_ctrls0.wrQLenPdf::17                     0                       # What write queue length does an incoming req see
system.mem_ctrls0.wrQLenPdf::18                     0                       # What write queue length does an incoming req see
system.mem_ctrls0.wrQLenPdf::19                     0                       # What write queue length does an incoming req see
system.mem_ctrls0.wrQLenPdf::20                     0                       # What write queue length does an incoming req see
system.mem_ctrls0.wrQLenPdf::21                     0                       # What write queue length does an incoming req see
system.mem_ctrls0.wrQLenPdf::22                     0                       # What write queue length does an incoming req see
system.mem_ctrls0.wrQLenPdf::23                     0                       # What write queue length does an incoming req see
system.mem_ctrls0.wrQLenPdf::24                     0                       # What write queue length does an incoming req see
system.mem_ctrls0.wrQLenPdf::25                     0                       # What write queue length does an incoming req see
system.mem_ctrls0.wrQLenPdf::26                     0                       # What write queue length does an incoming req see
system.mem_ctrls0.wrQLenPdf::27                     0                       # What write queue length does an incoming req see
system.mem_ctrls0.wrQLenPdf::28                     0                       # What write queue length does an incoming req see
system.mem_ctrls0.wrQLenPdf::29                     0                       # What write queue length does an incoming req see
system.mem_ctrls0.wrQLenPdf::30                     0                       # What write queue length does an incoming req see
system.mem_ctrls0.wrQLenPdf::31                     0                       # What write queue length does an incoming req see
system.mem_ctrls0.wrQLenPdf::32                     0                       # What write queue length does an incoming req see
system.mem_ctrls0.wrQLenPdf::33                     0                       # What write queue length does an incoming req see
system.mem_ctrls0.wrQLenPdf::34                     0                       # What write queue length does an incoming req see
system.mem_ctrls0.wrQLenPdf::35                     0                       # What write queue length does an incoming req see
system.mem_ctrls0.wrQLenPdf::36                     0                       # What write queue length does an incoming req see
system.mem_ctrls0.wrQLenPdf::37                     0                       # What write queue length does an incoming req see
system.mem_ctrls0.wrQLenPdf::38                     0                       # What write queue length does an incoming req see
system.mem_ctrls0.wrQLenPdf::39                     0                       # What write queue length does an incoming req see
system.mem_ctrls0.wrQLenPdf::40                     0                       # What write queue length does an incoming req see
system.mem_ctrls0.wrQLenPdf::41                     0                       # What write queue length does an incoming req see
system.mem_ctrls0.wrQLenPdf::42                     0                       # What write queue length does an incoming req see
system.mem_ctrls0.wrQLenPdf::43                     0                       # What write queue length does an incoming req see
system.mem_ctrls0.wrQLenPdf::44                     0                       # What write queue length does an incoming req see
[...]
system.ruby.network.int_links42.dst_net_bridge.power_state.pwrStateResidencyTicks::UNDEFINED       100000                       # Cumulative time (in ticks) in various power states
system.ruby.network.int_links42.network_link.power_state.pwrStateResidencyTicks::UNDEFINED       100000                       # Cumulative time (in ticks) in various power states
system.ruby.network.int_links42.src_cred_bridge.power_state.pwrStateResidencyTicks::UNDEFINED       100000                       # Cumulative time (in ticks) in various power states
system.ruby.network.int_links42.src_net_bridge.power_state.pwrStateResidencyTicks::UNDEFINED       100000                       # Cumulative time (in ticks) in various power states
system.ruby.network.int_links43.credit_link.power_state.pwrStateResidencyTicks::UNDEFINED       100000                       # Cumulative time (in ticks) in various power states
system.ruby.network.int_links43.dst_cred_bridge.power_state.pwrStateResidencyTicks::UNDEFINED       100000                       # Cumulative time (in ticks) in various power states
system.ruby.network.int_links43.dst_net_bridge.power_state.pwrStateResidencyTicks::UNDEFINED       100000                       # Cumulative time (in ticks) in various power states
system.ruby.network.int_links43.network_link.power_state.pwrStateResidencyTicks::UNDEFINED       100000                       # Cumulative time (in ticks) in various power states
system.ruby.network.int_links43.src_cred_bridge.power_state.pwrStateResidencyTicks::UNDEFINED       100000                       # Cumulative time (in ticks) in various power states
system.ruby.network.int_links43.src_net_bridge.power_state.pwrStateResidencyTicks::UNDEFINED       100000                       # Cumulative time (in ticks) in various power states
system.ruby.network.int_links44.credit_link.power_state.pwrStateResidencyTicks::UNDEFINED       100000                       # Cumulative time (in ticks) in various power states
system.ruby.network.int_links44.dst_cred_bridge.power_state.pwrStateResidencyTicks::UNDEFINED       100000                       # Cumulative time (in ticks) in various power states
system.ruby.network.int_links44.dst_net_bridge.power_state.pwrStateResidencyTicks::UNDEFINED       100000                       # Cumulative time (in ticks) in various power states
system.ruby.network.int_links44.network_link.power_state.pwrStateResidencyTicks::UNDEFINED       100000                       # Cumulative time (in ticks) in various power states
system.ruby.network.int_links44.src_cred_bridge.power_state.pwrStateResidencyTicks::UNDEFINED       100000                       # Cumulative time (in ticks) in various power states
system.ruby.network.int_links44.src_net_bridge.power_state.pwrStateResidencyTicks::UNDEFINED       100000                       # Cumulative time (in ticks) in various power states
system.ruby.network.int_links45.credit_link.power_state.pwrStateResidencyTicks::UNDEFINED       100000                       # Cumulative time (in ticks) in various power states
system.ruby.network.int_links45.dst_cred_bridge.power_state.pwrStateResidencyTicks::UNDEFINED       100000                       # Cumulative time (in ticks) in various power states
system.ruby.network.int_links45.dst_net_bridge.power_state.pwrStateResidencyTicks::UNDEFINED       100000                       # Cumulative time (in ticks) in various power states
system.ruby.network.int_links45.network_link.power_state.pwrStateResidencyTicks::UNDEFINED       100000                       # Cumulative time (in ticks) in various power states
system.ruby.network.int_links45.src_cred_bridge.power_state.pwrStateResidencyTicks::UNDEFINED       100000                       # Cumulative time (in ticks) in various power states
system.ruby.network.int_links45.src_net_bridge.power_state.pwrStateResidencyTicks::UNDEFINED       100000                       # Cumulative time (in ticks) in various power states
system.ruby.network.int_links46.credit_link.power_state.pwrStateResidencyTicks::UNDEFINED       100000                       # Cumulative time (in ticks) in various power states
system.ruby.network.int_links46.dst_cred_bridge.power_state.pwrStateResidencyTicks::UNDEFINED       100000                       # Cumulative time (in ticks) in various power states
system.ruby.network.int_links46.dst_net_bridge.power_state.pwrStateResidencyTicks::UNDEFINED       100000                       # Cumulative time (in ticks) in various power states
system.ruby.network.int_links46.network_link.power_state.pwrStateResidencyTicks::UNDEFINED       100000                       # Cumulative time (in ticks) in various power states
system.ruby.network.int_links46.src_cred_bridge.power_state.pwrStateResidencyTicks::UNDEFINED       100000                       # Cumulative time (in ticks) in various power states
system.ruby.network.int_links46.src_net_bridge.power_state.pwrStateResidencyTicks::UNDEFINED       100000                       # Cumulative time (in ticks) in various power states
system.ruby.network.int_links47.credit_link.power_state.pwrStateResidencyTicks::UNDEFINED       100000                       # Cumulative time (in ticks) in various power states
system.ruby.network.int_links47.dst_cred_bridge.power_state.pwrStateResidencyTicks::UNDEFINED       100000                       # Cumulative time (in ticks) in various power states
system.ruby.network.int_links47.dst_net_bridge.power_state.pwrStateResidencyTicks::UNDEFINED       100000                       # Cumulative time (in ticks) in various power states
system.ruby.network.int_links47.network_link.power_state.pwrStateResidencyTicks::UNDEFINED       100000                       # Cumulative time (in ticks) in various power states
system.ruby.network.int_links47.src_cred_bridge.power_state.pwrStateResidencyTicks::UNDEFINED       100000                       # Cumulative time (in ticks) in various power states
system.ruby.network.int_links47.src_net_bridge.power_state.pwrStateResidencyTicks::UNDEFINED       100000                       # Cumulative time (in ticks) in various power states
system.ruby.network.int_links5.credit_link.power_state.pwrStateResidencyTicks::UNDEFINED       100000                       # Cumulative time (in ticks) in various power states
system.ruby.network.int_links5.dst_cred_bridge.power_state.pwrStateResidencyTicks::UNDEFINED       100000                       # Cumulative time (in ticks) in various power states
system.ruby.network.int_links5.dst_net_bridge.power_state.pwrStateResidencyTicks::UNDEFINED       100000                       # Cumulative time (in ticks) in various power states
system.ruby.network.int_links5.network_link.power_state.pwrStateResidencyTicks::UNDEFINED       100000                       # Cumulative time (in ticks) in various power states
system.ruby.network.int_links5.src_cred_bridge.power_state.pwrStateResidencyTicks::UNDEFINED       100000                       # Cumulative time (in ticks) in various power states
system.ruby.network.int_links5.src_net_bridge.power_state.pwrStateResidencyTicks::UNDEFINED       100000                       # Cumulative time (in ticks) in various power states
system.ruby.network.int_links6.credit_link.power_state.pwrStateResidencyTicks::UNDEFINED       100000                       # Cumulative time (in ticks) in various power states
system.ruby.network.int_links6.dst_cred_bridge.power_state.pwrStateResidencyTicks::UNDEFINED       100000                       # Cumulative time (in ticks) in various power states
system.ruby.network.int_links6.dst_net_bridge.power_state.pwrStateResidencyTicks::UNDEFINED       100000                       # Cumulative time (in ticks) in various power states
system.ruby.network.int_links6.network_link.power_state.pwrStateResidencyTicks::UNDEFINED       100000                       # Cumulative time (in ticks) in various power states
system.ruby.network.int_links6.src_cred_bridge.power_state.pwrStateResidencyTicks::UNDEFINED       100000                       # Cumulative time (in ticks) in various power states
system.ruby.network.int_links6.src_net_bridge.power_state.pwrStateResidencyTicks::UNDEFINED       100000                       # Cumulative time (in ticks) in various power states
system.ruby.network.int_links7.credit_link.power_state.pwrStateResidencyTicks::UNDEFINED       100000                       # Cumulative time (in ticks) in various power states
system.ruby.network.int_links7.dst_cred_bridge.power_state.pwrStateResidencyTicks::UNDEFINED       100000                       # Cumulative time (in ticks) in various power states
system.ruby.network.int_links7.dst_net_bridge.power_state.pwrStateResidencyTicks::UNDEFINED       100000                       # Cumulative time (in ticks) in various power states
system.ruby.network.int_links7.network_link.power_state.pwrStateResidencyTicks::UNDEFINED       100000                       # Cumulative time (in ticks) in various power states
system.ruby.network.int_links7.src_cred_bridge.power_state.pwrStateResidencyTicks::UNDEFINED       100000                       # Cumulative time (in ticks) in various power states
system.ruby.network.int_links7.src_net_bridge.power_state.pwrStateResidencyTicks::UNDEFINED       100000                       # Cumulative time (in ticks) in various power states
system.ruby.network.int_links8.credit_link.power_state.pwrStateResidencyTicks::UNDEFINED       100000                       # Cumulative time (in ticks) in various power states
system.ruby.network.int_links8.dst_cred_bridge.power_state.pwrStateResidencyTicks::UNDEFINED       100000                       # Cumulative time (in ticks) in various power states
system.ruby.network.int_links8.dst_net_bridge.power_state.pwrStateResidencyTicks::UNDEFINED       100000                       # Cumulative time (in ticks) in various power states
system.ruby.network.int_links8.network_link.power_state.pwrStateResidencyTicks::UNDEFINED       100000                       # Cumulative time (in ticks) in various power states
system.ruby.network.int_links8.src_cred_bridge.power_state.pwrStateResidencyTicks::UNDEFINED       100000                       # Cumulative time (in ticks) in various power states
system.ruby.network.int_links8.src_net_bridge.power_state.pwrStateResidencyTicks::UNDEFINED       100000                       # Cumulative time (in ticks) in various power states
system.ruby.network.int_links9.credit_link.power_state.pwrStateResidencyTicks::UNDEFINED       100000                       # Cumulative time (in ticks) in various power states
system.ruby.network.int_links9.dst_cred_bridge.power_state.pwrStateResidencyTicks::UNDEFINED       100000                       # Cumulative time (in ticks) in various power states
system.ruby.network.int_links9.dst_net_bridge.power_state.pwrStateResidencyTicks::UNDEFINED       100000                       # Cumulative time (in ticks) in various power states
system.ruby.network.int_links9.network_link.power_state.pwrStateResidencyTicks::UNDEFINED       100000                       # Cumulative time (in ticks) in various power states
system.ruby.network.int_links9.src_cred_bridge.power_state.pwrStateResidencyTicks::UNDEFINED       100000                       # Cumulative time (in ticks) in various power states
system.ruby.network.int_links9.src_net_bridge.power_state.pwrStateResidencyTicks::UNDEFINED       100000                       # Cumulative time (in ticks) in various power states
system.ruby.network.netifs0.power_state.pwrStateResidencyTicks::UNDEFINED       100000                       # Cumulative time (in ticks) in various power states
system.ruby.network.netifs1.power_state.pwrStateResidencyTicks::UNDEFINED       100000                       # Cumulative time (in ticks) in various power states
system.ruby.network.netifs10.power_state.pwrStateResidencyTicks::UNDEFINED       100000                       # Cumulative time (in ticks) in various power states
system.ruby.network.netifs11.power_state.pwrStateResidencyTicks::UNDEFINED       100000                       # Cumulative time (in ticks) in various power states
system.ruby.network.netifs12.power_state.pwrStateResidencyTicks::UNDEFINED       100000                       # Cumulative time (in ticks) in various power states
system.ruby.network.netifs13.power_state.pwrStateResidencyTicks::UNDEFINED       100000                       # Cumulative time (in ticks) in various power states
system.ruby.network.netifs14.power_state.pwrStateResidencyTicks::UNDEFINED       100000                       # Cumulative time (in ticks) in various power states
system.ruby.network.netifs15.power_state.pwrStateResidencyTicks::UNDEFINED       100000                       # Cumulative time (in ticks) in various power states
system.ruby.network.netifs16.power_state.pwrStateResidencyTicks::UNDEFINED       100000                       # Cumulative time (in ticks) in various power states
system.ruby.network.netifs17.power_state.pwrStateResidencyTicks::UNDEFINED       100000                       # Cumulative time (in ticks) in various power states
system.ruby.network.netifs18.power_state.pwrStateResidencyTicks::UNDEFINED       100000                       # Cumulative time (in ticks) in various power states
system.ruby.network.netifs19.power_state.pwrStateResidencyTicks::UNDEFINED       100000                       # Cumulative time (in ticks) in various power states
system.ruby.network.netifs2.power_state.pwrStateResidencyTicks::UNDEFINED       100000                       # Cumulative time (in ticks) in various power states
system.ruby.network.netifs20.power_state.pwrStateResidencyTicks::UNDEFINED       100000                       # Cumulative time (in ticks) in various power states
system.ruby.network.netifs21.power_state.pwrStateResidencyTicks::UNDEFINED       100000                       # Cumulative time (in ticks) in various power states
system.ruby.network.netifs22.power_state.pwrStateResidencyTicks::UNDEFINED       100000                       # Cumulative time (in ticks) in various power states
system.ruby.network.netifs23.power_state.pwrStateResidencyTicks::UNDEFINED       100000                       # Cumulative time (in ticks) in various power states
system.ruby.network.netifs24.power_state.pwrStateResidencyTicks::UNDEFINED       100000                       # Cumulative time (in ticks) in various power states
system.ruby.network.netifs25.power_state.pwrStateResidencyTicks::UNDEFINED       100000                       # Cumulative time (in ticks) in various power states
system.ruby.network.netifs26.power_state.pwrStateResidencyTicks::UNDEFINED       100000                       # Cumulative time (in ticks) in various power states
system.ruby.network.netifs27.power_state.pwrStateResidencyTicks::UNDEFINED       100000                       # Cumulative time (in ticks) in various power states
system.ruby.network.netifs28.power_state.pwrStateResidencyTicks::UNDEFINED       100000                       # Cumulative time (in ticks) in various power states
system.ruby.network.netifs29.power_state.pwrStateResidencyTicks::UNDEFINED       100000                       # Cumulative time (in ticks) in various power states
system.ruby.network.netifs3.power_state.pwrStateResidencyTicks::UNDEFINED       100000                       # Cumulative time (in ticks) in various power states
system.ruby.network.netifs30.power_state.pwrStateResidencyTicks::UNDEFINED       100000                       # Cumulative time (in ticks) in various power states
system.ruby.network.netifs31.power_state.pwrStateResidencyTicks::UNDEFINED       100000                       # Cumulative time (in ticks) in various power states
system.ruby.network.netifs4.power_state.pwrStateResidencyTicks::UNDEFINED       100000                       # Cumulative time (in ticks) in various power states
system.ruby.network.netifs5.power_state.pwrStateResidencyTicks::UNDEFINED       100000                       # Cumulative time (in ticks) in various power states
system.ruby.network.netifs6.power_state.pwrStateResidencyTicks::UNDEFINED       100000                       # Cumulative time (in ticks) in various power states
system.ruby.network.netifs7.power_state.pwrStateResidencyTicks::UNDEFINED       100000                       # Cumulative time (in ticks) in various power states
system.ruby.network.netifs8.power_state.pwrStateResidencyTicks::UNDEFINED       100000                       # Cumulative time (in ticks) in various power states
system.ruby.network.netifs9.power_state.pwrStateResidencyTicks::UNDEFINED       100000                       # Cumulative time (in ticks) in various power states
system.ruby.network.power_state.pwrStateResidencyTicks::UNDEFINED       100000                       # Cumulative time (in ticks) in various power states
system.ruby.network.routers0.power_state.pwrStateResidencyTicks::UNDEFINED       100000                       # Cumulative time (in ticks) in various power states
system.ruby.network.routers1.power_state.pwrStateResidencyTicks::UNDEFINED       100000                       # Cumulative time (in ticks) in various power states
system.ruby.network.routers10.power_state.pwrStateResidencyTicks::UNDEFINED       100000                       # Cumulative time (in ticks) in various power states
system.ruby.network.routers11.power_state.pwrStateResidencyTicks::UNDEFINED       100000                       # Cumulative time (in ticks) in various power states
system.ruby.network.routers12.power_state.pwrStateResidencyTicks::UNDEFINED       100000                       # Cumulative time (in ticks) in various power states
system.ruby.network.routers13.power_state.pwrStateResidencyTicks::UNDEFINED       100000                       # Cumulative time (in ticks) in various power states
system.ruby.network.routers14.power_state.pwrStateResidencyTicks::UNDEFINED       100000                       # Cumulative time (in ticks) in various power states
system.ruby.network.routers15.power_state.pwrStateResidencyTicks::UNDEFINED       100000                       # Cumulative time (in ticks) in various power states
system.ruby.network.routers2.power_state.pwrStateResidencyTicks::UNDEFINED       100000                       # Cumulative time (in ticks) in various power states
system.ruby.network.routers3.power_state.pwrStateResidencyTicks::UNDEFINED       100000                       # Cumulative time (in ticks) in various power states
system.ruby.network.routers4.power_state.pwrStateResidencyTicks::UNDEFINED       100000                       # Cumulative time (in ticks) in various power states
system.ruby.network.routers5.power_state.pwrStateResidencyTicks::UNDEFINED       100000                       # Cumulative time (in ticks) in various power states
system.ruby.network.routers6.power_state.pwrStateResidencyTicks::UNDEFINED       100000                       # Cumulative time (in ticks) in various power states
system.ruby.network.routers7.power_state.pwrStateResidencyTicks::UNDEFINED       100000                       # Cumulative time (in ticks) in various power states
system.ruby.network.routers8.power_state.pwrStateResidencyTicks::UNDEFINED       100000                       # Cumulative time (in ticks) in various power states
system.ruby.network.routers9.power_state.pwrStateResidencyTicks::UNDEFINED       100000                       # Cumulative time (in ticks) in various power states
system.ruby.power_state.pwrStateResidencyTicks::UNDEFINED       100000                       # Cumulative time (in ticks) in various power states
system.sys_port_proxy.power_state.pwrStateResidencyTicks::UNDEFINED       100000                       # Cumulative time (in ticks) in various power states
system.voltage_domain.voltage                       1                       # Voltage in Volts

---------- End Simulation Statistics   ----------
