
---------- Begin Simulation Statistics ----------
final_tick                                      12101                       # Number of ticks from beginning of simulation (restored from checkpoints and never reset)
host_mem_usage                                 781348                       # Number of bytes of host memory used
host_seconds                                     0.46                       # Real time elapsed on the host
host_tick_rate                                  26131                       # Simulator tick rate (ticks/s)
sim_freq                                   1000000000                       # Frequency of simulated ticks
sim_seconds                                  0.000012                       # Number of seconds simulated
sim_ticks                                       12101                       # Number of ticks simulated
system.ruby.Directory.incomplete_times_seqr          706                      
system.ruby.Directory.miss_mach_latency_hist_seqr::bucket_size            1                      
system.ruby.Directory.miss_mach_latency_hist_seqr::max_bucket            9                      
system.ruby.Directory.miss_mach_latency_hist_seqr::samples          706                      
system.ruby.Directory.miss_mach_latency_hist_seqr |         706    100.00%    100.00% |           0      0.00%    100.00% |           0      0.00%    100.00% |           0      0.00%    100.00% |           0      0.00%    100.00% |           0      0.00%    100.00% |           0      0.00%    100.00% |           0      0.00%    100.00% |           0      0.00%    100.00% |           0      0.00%    100.00%
system.ruby.Directory.miss_mach_latency_hist_seqr::total          706                      
system.ruby.Directory_Controller.GETX    |          59      4.90%      4.90% |         109      9.05%     13.95% |           0      0.00%     13.95% |         270     22.43%     36.38% |           0      0.00%     36.38% |           0      0.00%     36.38% |           0      0.00%     36.38% |         265     22.01%     58.39% |           0      0.00%     58.39% |           0      0.00%     58.39% |           0      0.00%     58.39% |         237     19.68%     78.07% |           0      0.00%     78.07% |           0      0.00%     78.07% |           0      0.00%     78.07% |         264     21.93%    100.00%
system.ruby.Directory_Controller.GETX::total         1204                      
system.ruby.Directory_Controller.I.GETX  |           1      0.14%      0.14% |          13      1.82%      1.96% |           0      0.00%      1.96% |         179     25.11%     27.07% |           0      0.00%     27.07% |           0      0.00%     27.07% |           0      0.00%     27.07% |         176     24.68%     51.75% |           0      0.00%     51.75% |           0      0.00%     51.75% |           0      0.00%     51.75% |         169     23.70%     75.46% |           0      0.00%     75.46% |           0      0.00%     75.46% |           0      0.00%     75.46% |         175     24.54%    100.00%
system.ruby.Directory_Controller.I.GETX::total          713                      
system.ruby.Directory_Controller.I.PUTX_NotOwner |           0      0.00%      0.00% |           1    100.00%    100.00% |           0      0.00%    100.00% |           0      0.00%    100.00% |           0      0.00%    100.00% |           0      0.00%    100.00% |           0      0.00%    100.00% |           0      0.00%    100.00% |           0      0.00%    100.00% |           0      0.00%    100.00% |           0      0.00%    100.00% |           0      0.00%    100.00% |           0      0.00%    100.00% |           0      0.00%    100.00% |           0      0.00%    100.00% |           0      0.00%    100.00%
system.ruby.Directory_Controller.I.PUTX_NotOwner::total            1                      
system.ruby.Directory_Controller.IM.GETX |           2      1.15%      1.15% |          65     37.36%     38.51% |           0      0.00%     38.51% |          43     24.71%     63.22% |           0      0.00%     63.22% |           0      0.00%     63.22% |           0      0.00%     63.22% |          38     21.84%     85.06% |           0      0.00%     85.06% |           0      0.00%     85.06% |           0      0.00%     85.06% |           6      3.45%     88.51% |           0      0.00%     88.51% |           0      0.00%     88.51% |           0      0.00%     88.51% |          20     11.49%    100.00%
system.ruby.Directory_Controller.IM.GETX::total          174                      
system.ruby.Directory_Controller.IM.Memory_Data |           1      0.14%      0.14% |          13      1.83%      1.97% |           0      0.00%      1.97% |         178     25.11%     27.08% |           0      0.00%     27.08% |           0      0.00%     27.08% |           0      0.00%     27.08% |         176     24.82%     51.90% |           0      0.00%     51.90% |           0      0.00%     51.90% |           0      0.00%     51.90% |         169     23.84%     75.74% |           0      0.00%     75.74% |           0      0.00%     75.74% |           0      0.00%     75.74% |         172     24.26%    100.00%
system.ruby.Directory_Controller.IM.Memory_Data::total          709                      
system.ruby.Directory_Controller.M.GETX  |          56     23.53%     23.53% |          21      8.82%     32.35% |           0      0.00%     32.35% |          31     13.03%     45.38% |           0      0.00%     45.38% |           0      0.00%     45.38% |           0      0.00%     45.38% |          41     17.23%     62.61% |           0      0.00%     62.61% |           0      0.00%     62.61% |           0      0.00%     62.61% |          42     17.65%     80.25% |           0      0.00%     80.25% |           0      0.00%     80.25% |           0      0.00%     80.25% |          47     19.75%    100.00%
system.ruby.Directory_Controller.M.GETX::total          238                      
system.ruby.Directory_Controller.M.PUTX  |           0      0.00%      0.00% |          13      1.91%      1.91% |           0      0.00%      1.91% |         172     25.26%     27.17% |           0      0.00%     27.17% |           0      0.00%     27.17% |           0      0.00%     27.17% |         169     24.82%     51.98% |           0      0.00%     51.98% |           0      0.00%     51.98% |           0      0.00%     51.98% |         163     23.94%     75.92% |           0      0.00%     75.92% |           0      0.00%     75.92% |           0      0.00%     75.92% |         164     24.08%    100.00%
system.ruby.Directory_Controller.M.PUTX::total          681                      
system.ruby.Directory_Controller.M.PUTX_NotOwner |           0      0.00%      0.00% |           7     10.00%     10.00% |           0      0.00%     10.00% |          10     14.29%     24.29% |           0      0.00%     24.29% |           0      0.00%     24.29% |           0      0.00%     24.29% |          22     31.43%     55.71% |           0      0.00%     55.71% |           0      0.00%     55.71% |           0      0.00%     55.71% |          16     22.86%     78.57% |           0      0.00%     78.57% |           0      0.00%     78.57% |           0      0.00%     78.57% |          15     21.43%    100.00%
system.ruby.Directory_Controller.M.PUTX_NotOwner::total           70                      
system.ruby.Directory_Controller.MI.GETX |           0      0.00%      0.00% |          10     12.66%     12.66% |           0      0.00%     12.66% |          17     21.52%     34.18% |           0      0.00%     34.18% |           0      0.00%     34.18% |           0      0.00%     34.18% |          10     12.66%     46.84% |           0      0.00%     46.84% |           0      0.00%     46.84% |           0      0.00%     46.84% |          20     25.32%     72.15% |           0      0.00%     72.15% |           0      0.00%     72.15% |           0      0.00%     72.15% |          22     27.85%    100.00%
system.ruby.Directory_Controller.MI.GETX::total           79                      
system.ruby.Directory_Controller.MI.Memory_Ack |           0      0.00%      0.00% |          13      1.91%      1.91% |           0      0.00%      1.91% |         172     25.29%     27.21% |           0      0.00%     27.21% |           0      0.00%     27.21% |           0      0.00%     27.21% |         169     24.85%     52.06% |           0      0.00%     52.06% |           0      0.00%     52.06% |           0      0.00%     52.06% |         163     23.97%     76.03% |           0      0.00%     76.03% |           0      0.00%     76.03% |           0      0.00%     76.03% |         163     23.97%    100.00%
system.ruby.Directory_Controller.MI.Memory_Ack::total          680                      
system.ruby.Directory_Controller.Memory_Ack |           0      0.00%      0.00% |          13      1.91%      1.91% |           0      0.00%      1.91% |         172     25.29%     27.21% |           0      0.00%     27.21% |           0      0.00%     27.21% |           0      0.00%     27.21% |         169     24.85%     52.06% |           0      0.00%     52.06% |           0      0.00%     52.06% |           0      0.00%     52.06% |         163     23.97%     76.03% |           0      0.00%     76.03% |           0      0.00%     76.03% |           0      0.00%     76.03% |         163     23.97%    100.00%
system.ruby.Directory_Controller.Memory_Ack::total          680                      
system.ruby.Directory_Controller.Memory_Data |           1      0.14%      0.14% |          13      1.83%      1.97% |           0      0.00%      1.97% |         178     25.11%     27.08% |           0      0.00%     27.08% |           0      0.00%     27.08% |           0      0.00%     27.08% |         176     24.82%     51.90% |           0      0.00%     51.90% |           0      0.00%     51.90% |           0      0.00%     51.90% |         169     23.84%     75.74% |           0      0.00%     75.74% |           0      0.00%     75.74% |           0      0.00%     75.74% |         172     24.26%    100.00%
system.ruby.Directory_Controller.Memory_Data::total          709                      
system.ruby.Directory_Controller.PUTX    |           0      0.00%      0.00% |          13      1.91%      1.91% |           0      0.00%      1.91% |         172     25.26%     27.17% |           0      0.00%     27.17% |           0      0.00%     27.17% |           0      0.00%     27.17% |         169     24.82%     51.98% |           0      0.00%     51.98% |           0      0.00%     51.98% |           0      0.00%     51.98% |         163     23.94%     75.92% |           0      0.00%     75.92% |           0      0.00%     75.92% |           0      0.00%     75.92% |         164     24.08%    100.00%
system.ruby.Directory_Controller.PUTX::total          681                      
system.ruby.Directory_Controller.PUTX_NotOwner |           0      0.00%      0.00% |           8     11.27%     11.27% |           0      0.00%     11.27% |          10     14.08%     25.35% |           0      0.00%     25.35% |           0      0.00%     25.35% |           0      0.00%     25.35% |          22     30.99%     56.34% |           0      0.00%     56.34% |           0      0.00%     56.34% |           0      0.00%     56.34% |          16     22.54%     78.87% |           0      0.00%     78.87% |           0      0.00%     78.87% |           0      0.00%     78.87% |          15     21.13%    100.00%
system.ruby.Directory_Controller.PUTX_NotOwner::total           71                      
system.ruby.IFETCH.Directory.miss_type_mach_latency_hist_seqr::bucket_size            1                      
system.ruby.IFETCH.Directory.miss_type_mach_latency_hist_seqr::max_bucket            9                      
system.ruby.IFETCH.Directory.miss_type_mach_latency_hist_seqr::samples           38                      
system.ruby.IFETCH.Directory.miss_type_mach_latency_hist_seqr |          38    100.00%    100.00% |           0      0.00%    100.00% |           0      0.00%    100.00% |           0      0.00%    100.00% |           0      0.00%    100.00% |           0      0.00%    100.00% |           0      0.00%    100.00% |           0      0.00%    100.00% |           0      0.00%    100.00% |           0      0.00%    100.00%
system.ruby.IFETCH.Directory.miss_type_mach_latency_hist_seqr::total           38                      
system.ruby.IFETCH.L1Cache.miss_type_mach_latency_hist_seqr::bucket_size            1                      
system.ruby.IFETCH.L1Cache.miss_type_mach_latency_hist_seqr::max_bucket            9                      
system.ruby.IFETCH.L1Cache.miss_type_mach_latency_hist_seqr::samples           12                      
system.ruby.IFETCH.L1Cache.miss_type_mach_latency_hist_seqr |          12    100.00%    100.00% |           0      0.00%    100.00% |           0      0.00%    100.00% |           0      0.00%    100.00% |           0      0.00%    100.00% |           0      0.00%    100.00% |           0      0.00%    100.00% |           0      0.00%    100.00% |           0      0.00%    100.00% |           0      0.00%    100.00%
system.ruby.IFETCH.L1Cache.miss_type_mach_latency_hist_seqr::total           12                      
system.ruby.IFETCH.hit_latency_hist_seqr::bucket_size            1                      
system.ruby.IFETCH.hit_latency_hist_seqr::max_bucket            9                      
system.ruby.IFETCH.hit_latency_hist_seqr::samples            1                      
system.ruby.IFETCH.hit_latency_hist_seqr::stdev          nan                      
system.ruby.IFETCH.hit_latency_hist_seqr |           1    100.00%    100.00% |           0      0.00%    100.00% |           0      0.00%    100.00% |           0      0.00%    100.00% |           0      0.00%    100.00% |           0      0.00%    100.00% |           0      0.00%    100.00% |           0      0.00%    100.00% |           0      0.00%    100.00% |           0      0.00%    100.00%
system.ruby.IFETCH.hit_latency_hist_seqr::total            1                      
system.ruby.IFETCH.latency_hist_seqr::bucket_size            1                      
system.ruby.IFETCH.latency_hist_seqr::max_bucket            9                      
system.ruby.IFETCH.latency_hist_seqr::samples           51                      
system.ruby.IFETCH.latency_hist_seqr     |          51    100.00%    100.00% |           0      0.00%    100.00% |           0      0.00%    100.00% |           0      0.00%    100.00% |           0      0.00%    100.00% |           0      0.00%    100.00% |           0      0.00%    100.00% |           0      0.00%    100.00% |           0      0.00%    100.00% |           0      0.00%    100.00%
system.ruby.IFETCH.latency_hist_seqr::total           51                      
system.ruby.IFETCH.miss_latency_hist_seqr::bucket_size            1                      
system.ruby.IFETCH.miss_latency_hist_seqr::max_bucket            9                      
system.ruby.IFETCH.miss_latency_hist_seqr::samples           50                      
system.ruby.IFETCH.miss_latency_hist_seqr |          50    100.00%    100.00% |           0      0.00%    100.00% |           0      0.00%    100.00% |           0      0.00%    100.00% |           0      0.00%    100.00% |           0      0.00%    100.00% |           0      0.00%    100.00% |           0      0.00%    100.00% |           0      0.00%    100.00% |           0      0.00%    100.00%
system.ruby.IFETCH.miss_latency_hist_seqr::total           50                      
system.ruby.L1Cache.incomplete_times_seqr          236                      
system.ruby.L1Cache.miss_mach_latency_hist_seqr::bucket_size            1                      
system.ruby.L1Cache.miss_mach_latency_hist_seqr::max_bucket            9                      
system.ruby.L1Cache.miss_mach_latency_hist_seqr::samples          236                      
system.ruby.L1Cache.miss_mach_latency_hist_seqr |         236    100.00%    100.00% |           0      0.00%    100.00% |           0      0.00%    100.00% |           0      0.00%    100.00% |           0      0.00%    100.00% |           0      0.00%    100.00% |           0      0.00%    100.00% |           0      0.00%    100.00% |           0      0.00%    100.00% |           0      0.00%    100.00%
system.ruby.L1Cache.miss_mach_latency_hist_seqr::total          236                      
system.ruby.L1Cache_Controller.Data      |          56      5.94%      5.94% |          69      7.32%     13.27% |          62      6.58%     19.85% |          63      6.69%     26.54% |          59      6.26%     32.80% |          62      6.58%     39.38% |          41      4.35%     43.74% |          61      6.48%     50.21% |          58      6.16%     56.37% |          43      4.56%     60.93% |          54      5.73%     66.67% |          66      7.01%     73.67% |          69      7.32%     81.00% |          52      5.52%     86.52% |          64      6.79%     93.31% |          63      6.69%    100.00%
system.ruby.L1Cache_Controller.Data::total          942                      
system.ruby.L1Cache_Controller.Fwd_GETX  |          16      6.75%      6.75% |          14      5.91%     12.66% |          11      4.64%     17.30% |          13      5.49%     22.78% |          15      6.33%     29.11% |          12      5.06%     34.18% |          20      8.44%     42.62% |           9      3.80%     46.41% |          16      6.75%     53.16% |          18      7.59%     60.76% |          13      5.49%     66.24% |          11      4.64%     70.89% |          16      6.75%     77.64% |          19      8.02%     85.65% |          17      7.17%     92.83% |          17      7.17%    100.00%
system.ruby.L1Cache_Controller.Fwd_GETX::total          237                      
system.ruby.L1Cache_Controller.I.Ifetch  |           4      8.00%      8.00% |           1      2.00%     10.00% |           2      4.00%     14.00% |           1      2.00%     16.00% |           3      6.00%     22.00% |           5     10.00%     32.00% |           2      4.00%     36.00% |           5     10.00%     46.00% |           4      8.00%     54.00% |           6     12.00%     66.00% |           4      8.00%     74.00% |           2      4.00%     78.00% |           2      4.00%     82.00% |           5     10.00%     92.00% |           3      6.00%     98.00% |           1      2.00%    100.00%
system.ruby.L1Cache_Controller.I.Ifetch::total           50                      
system.ruby.L1Cache_Controller.I.Load    |           1      2.13%      2.13% |           3      6.38%      8.51% |           4      8.51%     17.02% |           4      8.51%     25.53% |           1      2.13%     27.66% |           4      8.51%     36.17% |           6     12.77%     48.94% |           4      8.51%     57.45% |           4      8.51%     65.96% |           1      2.13%     68.09% |           3      6.38%     74.47% |           2      4.26%     78.72% |           3      6.38%     85.11% |           2      4.26%     89.36% |           2      4.26%     93.62% |           3      6.38%    100.00%
system.ruby.L1Cache_Controller.I.Load::total           47                      
system.ruby.L1Cache_Controller.I.Replacement |          10      9.17%      9.17% |           4      3.67%     12.84% |           8      7.34%     20.18% |           6      5.50%     25.69% |           7      6.42%     32.11% |           4      3.67%     35.78% |          13     11.93%     47.71% |           4      3.67%     51.38% |           8      7.34%     58.72% |          10      9.17%     67.89% |           6      5.50%     73.39% |           4      3.67%     77.06% |           5      4.59%     81.65% |           7      6.42%     88.07% |           5      4.59%     92.66% |           8      7.34%    100.00%
system.ruby.L1Cache_Controller.I.Replacement::total          109                      
system.ruby.L1Cache_Controller.I.Store   |          51      5.93%      5.93% |          67      7.79%     13.72% |          57      6.63%     20.35% |          59      6.86%     27.21% |          55      6.40%     33.60% |          54      6.28%     39.88% |          35      4.07%     43.95% |          52      6.05%     50.00% |          51      5.93%     55.93% |          37      4.30%     60.23% |          47      5.47%     65.70% |          64      7.44%     73.14% |          65      7.56%     80.70% |          45      5.23%     85.93% |          60      6.98%     92.91% |          61      7.09%    100.00%
system.ruby.L1Cache_Controller.I.Store::total          860                      
system.ruby.L1Cache_Controller.II.Writeback_Nack |           2      3.03%      3.03% |           3      4.55%      7.58% |           2      3.03%     10.61% |           3      4.55%     15.15% |           4      6.06%     21.21% |           3      4.55%     25.76% |           4      6.06%     31.82% |           2      3.03%     34.85% |           5      7.58%     42.42% |           4      6.06%     48.48% |           4      6.06%     54.55% |           4      6.06%     60.61% |           6      9.09%     69.70% |           6      9.09%     78.79% |           7     10.61%     89.39% |           7     10.61%    100.00%
system.ruby.L1Cache_Controller.II.Writeback_Nack::total           66                      
system.ruby.L1Cache_Controller.IM.Data   |          51      6.03%      6.03% |          66      7.80%     13.83% |          56      6.62%     20.45% |          58      6.86%     27.30% |          55      6.50%     33.81% |          53      6.26%     40.07% |          33      3.90%     43.97% |          52      6.15%     50.12% |          50      5.91%     56.03% |          36      4.26%     60.28% |          47      5.56%     65.84% |          62      7.33%     73.17% |          64      7.57%     80.73% |          45      5.32%     86.05% |          59      6.97%     93.03% |          59      6.97%    100.00%
system.ruby.L1Cache_Controller.IM.Data::total          846                      
system.ruby.L1Cache_Controller.IS.Data   |           5      5.21%      5.21% |           3      3.12%      8.33% |           6      6.25%     14.58% |           5      5.21%     19.79% |           4      4.17%     23.96% |           9      9.38%     33.33% |           8      8.33%     41.67% |           9      9.38%     51.04% |           8      8.33%     59.38% |           7      7.29%     66.67% |           7      7.29%     73.96% |           4      4.17%     78.12% |           5      5.21%     83.33% |           7      7.29%     90.62% |           5      5.21%     95.83% |           4      4.17%    100.00%
system.ruby.L1Cache_Controller.IS.Data::total           96                      
system.ruby.L1Cache_Controller.Ifetch    |           4      7.84%      7.84% |           1      1.96%      9.80% |           2      3.92%     13.73% |           1      1.96%     15.69% |           3      5.88%     21.57% |           5      9.80%     31.37% |           2      3.92%     35.29% |           5      9.80%     45.10% |           4      7.84%     52.94% |           6     11.76%     64.71% |           4      7.84%     72.55% |           2      3.92%     76.47% |           2      3.92%     80.39% |           5      9.80%     90.20% |           4      7.84%     98.04% |           1      1.96%    100.00%
system.ruby.L1Cache_Controller.Ifetch::total           51                      
system.ruby.L1Cache_Controller.Load      |           1      2.13%      2.13% |           3      6.38%      8.51% |           4      8.51%     17.02% |           4      8.51%     25.53% |           1      2.13%     27.66% |           4      8.51%     36.17% |           6     12.77%     48.94% |           4      8.51%     57.45% |           4      8.51%     65.96% |           1      2.13%     68.09% |           3      6.38%     74.47% |           2      4.26%     78.72% |           3      6.38%     85.11% |           2      4.26%     89.36% |           2      4.26%     93.62% |           3      6.38%    100.00%
system.ruby.L1Cache_Controller.Load::total           47                      
system.ruby.L1Cache_Controller.M.Fwd_GETX |          13      7.78%      7.78% |          10      5.99%     13.77% |           9      5.39%     19.16% |          10      5.99%     25.15% |          11      6.59%     31.74% |           9      5.39%     37.13% |          16      9.58%     46.71% |           7      4.19%     50.90% |          11      6.59%     57.49% |          14      8.38%     65.87% |           9      5.39%     71.26% |           7      4.19%     75.45% |           9      5.39%     80.84% |          13      7.78%     88.62% |          10      5.99%     94.61% |           9      5.39%    100.00%
system.ruby.L1Cache_Controller.M.Fwd_GETX::total          167                      
system.ruby.L1Cache_Controller.M.Ifetch  |           0      0.00%      0.00% |           0      0.00%      0.00% |           0      0.00%      0.00% |           0      0.00%      0.00% |           0      0.00%      0.00% |           0      0.00%      0.00% |           0      0.00%      0.00% |           0      0.00%      0.00% |           0      0.00%      0.00% |           0      0.00%      0.00% |           0      0.00%      0.00% |           0      0.00%      0.00% |           0      0.00%      0.00% |           0      0.00%      0.00% |           1    100.00%    100.00% |           0      0.00%    100.00%
system.ruby.L1Cache_Controller.M.Ifetch::total            1                      
system.ruby.L1Cache_Controller.M.Replacement |          41      5.41%      5.41% |          59      7.78%     13.19% |          52      6.86%     20.05% |          52      6.86%     26.91% |          46      6.07%     32.98% |          52      6.86%     39.84% |          24      3.17%     43.01% |          52      6.86%     49.87% |          46      6.07%     55.94% |          28      3.69%     59.63% |          43      5.67%     65.30% |          59      7.78%     73.09% |          59      7.78%     80.87% |          38      5.01%     85.88% |          53      6.99%     92.88% |          54      7.12%    100.00%
system.ruby.L1Cache_Controller.M.Replacement::total          758                      
system.ruby.L1Cache_Controller.M.Store   |           1     16.67%     16.67% |           1     16.67%     33.33% |           1     16.67%     50.00% |           0      0.00%     50.00% |           0      0.00%     50.00% |           2     33.33%     83.33% |           1     16.67%    100.00% |           0      0.00%    100.00% |           0      0.00%    100.00% |           0      0.00%    100.00% |           0      0.00%    100.00% |           0      0.00%    100.00% |           0      0.00%    100.00% |           0      0.00%    100.00% |           0      0.00%    100.00% |           0      0.00%    100.00%
system.ruby.L1Cache_Controller.M.Store::total            6                      
system.ruby.L1Cache_Controller.MI.Fwd_GETX |           2      3.03%      3.03% |           3      4.55%      7.58% |           2      3.03%     10.61% |           3      4.55%     15.15% |           4      6.06%     21.21% |           3      4.55%     25.76% |           4      6.06%     31.82% |           2      3.03%     34.85% |           5      7.58%     42.42% |           4      6.06%     48.48% |           4      6.06%     54.55% |           4      6.06%     60.61% |           6      9.09%     69.70% |           6      9.09%     78.79% |           7     10.61%     89.39% |           7     10.61%    100.00%
system.ruby.L1Cache_Controller.MI.Fwd_GETX::total           66                      
system.ruby.L1Cache_Controller.MI.Writeback_Ack |          38      5.60%      5.60% |          53      7.82%     13.42% |          49      7.23%     20.65% |          48      7.08%     27.73% |          42      6.19%     33.92% |          49      7.23%     41.15% |          20      2.95%     44.10% |          50      7.37%     51.47% |          40      5.90%     57.37% |          23      3.39%     60.77% |          39      5.75%     66.52% |          53      7.82%     74.34% |          51      7.52%     81.86% |          32      4.72%     86.58% |          46      6.78%     93.36% |          45      6.64%    100.00%
system.ruby.L1Cache_Controller.MI.Writeback_Ack::total          678                      
system.ruby.L1Cache_Controller.MI.Writeback_Nack |           1     25.00%     25.00% |           1     25.00%     50.00% |           0      0.00%     50.00% |           0      0.00%     50.00% |           0      0.00%     50.00% |           0      0.00%     50.00% |           0      0.00%     50.00% |           0      0.00%     50.00% |           0      0.00%     50.00% |           0      0.00%     50.00% |           0      0.00%     50.00% |           0      0.00%     50.00% |           1     25.00%     75.00% |           0      0.00%     75.00% |           0      0.00%     75.00% |           1     25.00%    100.00%
system.ruby.L1Cache_Controller.MI.Writeback_Nack::total            4                      
system.ruby.L1Cache_Controller.MII.Fwd_GETX |           1     25.00%     25.00% |           1     25.00%     50.00% |           0      0.00%     50.00% |           0      0.00%     50.00% |           0      0.00%     50.00% |           0      0.00%     50.00% |           0      0.00%     50.00% |           0      0.00%     50.00% |           0      0.00%     50.00% |           0      0.00%     50.00% |           0      0.00%     50.00% |           0      0.00%     50.00% |           1     25.00%     75.00% |           0      0.00%     75.00% |           0      0.00%     75.00% |           1     25.00%    100.00%
system.ruby.L1Cache_Controller.MII.Fwd_GETX::total            4                      
system.ruby.L1Cache_Controller.Replacement |          51      5.88%      5.88% |          63      7.27%     13.15% |          60      6.92%     20.07% |          58      6.69%     26.76% |          53      6.11%     32.87% |          56      6.46%     39.33% |          37      4.27%     43.60% |          56      6.46%     50.06% |          54      6.23%     56.29% |          38      4.38%     60.67% |          49      5.65%     66.32% |          63      7.27%     73.59% |          64      7.38%     80.97% |          45      5.19%     86.16% |          58      6.69%     92.85% |          62      7.15%    100.00%
system.ruby.L1Cache_Controller.Replacement::total          867                      
system.ruby.L1Cache_Controller.Store     |          52      6.00%      6.00% |          68      7.85%     13.86% |          58      6.70%     20.55% |          59      6.81%     27.37% |          55      6.35%     33.72% |          56      6.47%     40.18% |          36      4.16%     44.34% |          52      6.00%     50.35% |          51      5.89%     56.24% |          37      4.27%     60.51% |          47      5.43%     65.94% |          64      7.39%     73.33% |          65      7.51%     80.83% |          45      5.20%     86.03% |          60      6.93%     92.96% |          61      7.04%    100.00%
system.ruby.L1Cache_Controller.Store::total          866                      
system.ruby.L1Cache_Controller.Writeback_Ack |          38      5.60%      5.60% |          53      7.82%     13.42% |          49      7.23%     20.65% |          48      7.08%     27.73% |          42      6.19%     33.92% |          49      7.23%     41.15% |          20      2.95%     44.10% |          50      7.37%     51.47% |          40      5.90%     57.37% |          23      3.39%     60.77% |          39      5.75%     66.52% |          53      7.82%     74.34% |          51      7.52%     81.86% |          32      4.72%     86.58% |          46      6.78%     93.36% |          45      6.64%    100.00%
system.ruby.L1Cache_Controller.Writeback_Ack::total          678                      
system.ruby.L1Cache_Controller.Writeback_Nack |           3      4.29%      4.29% |           4      5.71%     10.00% |           2      2.86%     12.86% |           3      4.29%     17.14% |           4      5.71%     22.86% |           3      4.29%     27.14% |           4      5.71%     32.86% |           2      2.86%     35.71% |           5      7.14%     42.86% |           4      5.71%     48.57% |           4      5.71%     54.29% |           4      5.71%     60.00% |           7     10.00%     70.00% |           6      8.57%     78.57% |           7     10.00%     88.57% |           8     11.43%    100.00%
system.ruby.L1Cache_Controller.Writeback_Nack::total           70                      
system.ruby.LD.Directory.miss_type_mach_latency_hist_seqr::bucket_size            1                      
system.ruby.LD.Directory.miss_type_mach_latency_hist_seqr::max_bucket            9                      
system.ruby.LD.Directory.miss_type_mach_latency_hist_seqr::samples           31                      
system.ruby.LD.Directory.miss_type_mach_latency_hist_seqr |          31    100.00%    100.00% |           0      0.00%    100.00% |           0      0.00%    100.00% |           0      0.00%    100.00% |           0      0.00%    100.00% |           0      0.00%    100.00% |           0      0.00%    100.00% |           0      0.00%    100.00% |           0      0.00%    100.00% |           0      0.00%    100.00%
system.ruby.LD.Directory.miss_type_mach_latency_hist_seqr::total           31                      
system.ruby.LD.L1Cache.miss_type_mach_latency_hist_seqr::bucket_size            1                      
system.ruby.LD.L1Cache.miss_type_mach_latency_hist_seqr::max_bucket            9                      
system.ruby.LD.L1Cache.miss_type_mach_latency_hist_seqr::samples           15                      
system.ruby.LD.L1Cache.miss_type_mach_latency_hist_seqr |          15    100.00%    100.00% |           0      0.00%    100.00% |           0      0.00%    100.00% |           0      0.00%    100.00% |           0      0.00%    100.00% |           0      0.00%    100.00% |           0      0.00%    100.00% |           0      0.00%    100.00% |           0      0.00%    100.00% |           0      0.00%    100.00%
system.ruby.LD.L1Cache.miss_type_mach_latency_hist_seqr::total           15                      
system.ruby.LD.latency_hist_seqr::bucket_size            1                      
system.ruby.LD.latency_hist_seqr::max_bucket            9                      
system.ruby.LD.latency_hist_seqr::samples           46                      
system.ruby.LD.latency_hist_seqr         |          46    100.00%    100.00% |           0      0.00%    100.00% |           0      0.00%    100.00% |           0      0.00%    100.00% |           0      0.00%    100.00% |           0      0.00%    100.00% |           0      0.00%    100.00% |           0      0.00%    100.00% |           0      0.00%    100.00% |           0      0.00%    100.00%
system.ruby.LD.latency_hist_seqr::total            46                      
system.ruby.LD.miss_latency_hist_seqr::bucket_size            1                      
system.ruby.LD.miss_latency_hist_seqr::max_bucket            9                      
system.ruby.LD.miss_latency_hist_seqr::samples           46                      
system.ruby.LD.miss_latency_hist_seqr    |          46    100.00%    100.00% |           0      0.00%    100.00% |           0      0.00%    100.00% |           0      0.00%    100.00% |           0      0.00%    100.00% |           0      0.00%    100.00% |           0      0.00%    100.00% |           0      0.00%    100.00% |           0      0.00%    100.00% |           0      0.00%    100.00%
system.ruby.LD.miss_latency_hist_seqr::total           46                      
system.ruby.ST.Directory.miss_type_mach_latency_hist_seqr::bucket_size            1                      
system.ruby.ST.Directory.miss_type_mach_latency_hist_seqr::max_bucket            9                      
system.ruby.ST.Directory.miss_type_mach_latency_hist_seqr::samples          637                      
system.ruby.ST.Directory.miss_type_mach_latency_hist_seqr |         637    100.00%    100.00% |           0      0.00%    100.00% |           0      0.00%    100.00% |           0      0.00%    100.00% |           0      0.00%    100.00% |           0      0.00%    100.00% |           0      0.00%    100.00% |           0      0.00%    100.00% |           0      0.00%    100.00% |           0      0.00%    100.00%
system.ruby.ST.Directory.miss_type_mach_latency_hist_seqr::total          637                      
system.ruby.ST.L1Cache.miss_type_mach_latency_hist_seqr::bucket_size            1                      
system.ruby.ST.L1Cache.miss_type_mach_latency_hist_seqr::max_bucket            9                      
system.ruby.ST.L1Cache.miss_type_mach_latency_hist_seqr::samples          209                      
system.ruby.ST.L1Cache.miss_type_mach_latency_hist_seqr |         209    100.00%    100.00% |           0      0.00%    100.00% |           0      0.00%    100.00% |           0      0.00%    100.00% |           0      0.00%    100.00% |           0      0.00%    100.00% |           0      0.00%    100.00% |           0      0.00%    100.00% |           0      0.00%    100.00% |           0      0.00%    100.00%
system.ruby.ST.L1Cache.miss_type_mach_latency_hist_seqr::total          209                      
system.ruby.ST.hit_latency_hist_seqr::bucket_size            1                      
system.ruby.ST.hit_latency_hist_seqr::max_bucket            9                      
system.ruby.ST.hit_latency_hist_seqr::samples            6                      
system.ruby.ST.hit_latency_hist_seqr     |           6    100.00%    100.00% |           0      0.00%    100.00% |           0      0.00%    100.00% |           0      0.00%    100.00% |           0      0.00%    100.00% |           0      0.00%    100.00% |           0      0.00%    100.00% |           0      0.00%    100.00% |           0      0.00%    100.00% |           0      0.00%    100.00%
system.ruby.ST.hit_latency_hist_seqr::total            6                      
system.ruby.ST.latency_hist_seqr::bucket_size            1                      
system.ruby.ST.latency_hist_seqr::max_bucket            9                      
system.ruby.ST.latency_hist_seqr::samples          852                      
system.ruby.ST.latency_hist_seqr         |         852    100.00%    100.00% |           0      0.00%    100.00% |           0      0.00%    100.00% |           0      0.00%    100.00% |           0      0.00%    100.00% |           0      0.00%    100.00% |           0      0.00%    100.00% |           0      0.00%    100.00% |           0      0.00%    100.00% |           0      0.00%    100.00%
system.ruby.ST.latency_hist_seqr::total           852                      
system.ruby.ST.miss_latency_hist_seqr::bucket_size            1                      
system.ruby.ST.miss_latency_hist_seqr::max_bucket            9                      
system.ruby.ST.miss_latency_hist_seqr::samples          846                      
system.ruby.ST.miss_latency_hist_seqr    |         846    100.00%    100.00% |           0      0.00%    100.00% |           0      0.00%    100.00% |           0      0.00%    100.00% |           0      0.00%    100.00% |           0      0.00%    100.00% |           0      0.00%    100.00% |           0      0.00%    100.00% |           0      0.00%    100.00% |           0      0.00%    100.00%
system.ruby.ST.miss_latency_hist_seqr::total          846                      
system.ruby.delayHist::bucket_size                 64                       # delay histogram for all message
system.ruby.delayHist::max_bucket                 639                       # delay histogram for all message
system.ruby.delayHist::samples                   1927                       # delay histogram for all message
system.ruby.delayHist::mean                 14.841723                       # delay histogram for all message
system.ruby.delayHist::gmean                12.192690                       # delay histogram for all message
system.ruby.delayHist::stdev                20.289503                       # delay histogram for all message
system.ruby.delayHist                    |        1897     98.44%     98.44% |          17      0.88%     99.33% |           4      0.21%     99.53% |           6      0.31%     99.84% |           1      0.05%     99.90% |           2      0.10%    100.00% |           0      0.00%    100.00% |           0      0.00%    100.00% |           0      0.00%    100.00% |           0      0.00%    100.00% # delay histogram for all message
system.ruby.delayHist::total                     1927                       # delay histogram for all message
system.ruby.delayVCHist.vnet_1::bucket_size            4                       # delay histogram for vnet_1
system.ruby.delayVCHist.vnet_1::max_bucket           39                       # delay histogram for vnet_1
system.ruby.delayVCHist.vnet_1::samples           942                       # delay histogram for vnet_1
system.ruby.delayVCHist.vnet_1::mean        15.330149                       # delay histogram for vnet_1
system.ruby.delayVCHist.vnet_1::gmean       14.946008                       # delay histogram for vnet_1
system.ruby.delayVCHist.vnet_1::stdev        3.469975                       # delay histogram for vnet_1
system.ruby.delayVCHist.vnet_1           |           0      0.00%      0.00% |           0      0.00%      0.00% |         154     16.35%     16.35% |         402     42.68%     59.02% |         286     30.36%     89.38% |          84      8.92%     98.30% |          11      1.17%     99.47% |           5      0.53%    100.00% |           0      0.00%    100.00% |           0      0.00%    100.00% # delay histogram for vnet_1
system.ruby.delayVCHist.vnet_1::total             942                       # delay histogram for vnet_1
system.ruby.delayVCHist.vnet_2::bucket_size           64                       # delay histogram for vnet_2
system.ruby.delayVCHist.vnet_2::max_bucket          639                       # delay histogram for vnet_2
system.ruby.delayVCHist.vnet_2::samples           985                       # delay histogram for vnet_2
system.ruby.delayVCHist.vnet_2::mean        14.374619                       # delay histogram for vnet_2
system.ruby.delayVCHist.vnet_2::gmean       10.035385                       # delay histogram for vnet_2
system.ruby.delayVCHist.vnet_2::stdev       28.174377                       # delay histogram for vnet_2
system.ruby.delayVCHist.vnet_2           |         955     96.95%     96.95% |          17      1.73%     98.68% |           4      0.41%     99.09% |           6      0.61%     99.70% |           1      0.10%     99.80% |           2      0.20%    100.00% |           0      0.00%    100.00% |           0      0.00%    100.00% |           0      0.00%    100.00% |           0      0.00%    100.00% # delay histogram for vnet_2
system.ruby.delayVCHist.vnet_2::total             985                       # delay histogram for vnet_2
system.ruby.dir_cntrl0.forwardFromDir.avg_buf_msgs     0.090068                       # Average number of messages in buffer
system.ruby.dir_cntrl0.forwardFromDir.avg_stall_time    19.904561                       # Average number of cycles messages are stalled in this MB
system.ruby.dir_cntrl0.requestToDir.avg_buf_msgs     0.073955                       # Average number of messages in buffer
system.ruby.dir_cntrl0.requestToDir.avg_stall_time    59.764006                       # Average number of cycles messages are stalled in this MB
system.ruby.dir_cntrl0.requestToMemory.avg_buf_msgs     0.000083                       # Average number of messages in buffer
system.ruby.dir_cntrl0.requestToMemory.avg_stall_time     0.990250                       # Average number of cycles messages are stalled in this MB
system.ruby.dir_cntrl0.responseFromDir.avg_buf_msgs     0.000083                       # Average number of messages in buffer
system.ruby.dir_cntrl0.responseFromDir.avg_stall_time     0.985622                       # Average number of cycles messages are stalled in this MB
system.ruby.dir_cntrl0.responseFromMemory.avg_buf_msgs     0.000165                       # Average number of messages in buffer
system.ruby.dir_cntrl0.responseFromMemory.avg_stall_time     1.971410                       # Average number of cycles messages are stalled in this MB
system.ruby.dir_cntrl1.forwardFromDir.avg_buf_msgs     0.081887                       # Average number of messages in buffer
system.ruby.dir_cntrl1.forwardFromDir.avg_stall_time    15.516030                       # Average number of cycles messages are stalled in this MB
system.ruby.dir_cntrl1.requestToDir.avg_buf_msgs     0.132871                       # Average number of messages in buffer
system.ruby.dir_cntrl1.requestToDir.avg_stall_time    77.335895                       # Average number of cycles messages are stalled in this MB
system.ruby.dir_cntrl1.requestToMemory.avg_buf_msgs     0.031152                       # Average number of messages in buffer
system.ruby.dir_cntrl1.requestToMemory.avg_stall_time     9.714097                       # Average number of cycles messages are stalled in this MB
system.ruby.dir_cntrl1.responseFromDir.avg_buf_msgs     0.010742                       # Average number of messages in buffer
system.ruby.dir_cntrl1.responseFromDir.avg_stall_time     8.044703                       # Average number of cycles messages are stalled in this MB
system.ruby.dir_cntrl1.responseFromMemory.avg_buf_msgs     0.040820                       # Average number of messages in buffer
system.ruby.dir_cntrl1.responseFromMemory.avg_stall_time    23.285655                       # Average number of cycles messages are stalled in this MB
system.ruby.dir_cntrl11.forwardFromDir.avg_buf_msgs     0.222112                       # Average number of messages in buffer
system.ruby.dir_cntrl11.forwardFromDir.avg_stall_time    16.481491                       # Average number of cycles messages are stalled in this MB
system.ruby.dir_cntrl11.requestToDir.avg_buf_msgs     2.759379                       # Average number of messages in buffer
system.ruby.dir_cntrl11.requestToDir.avg_stall_time   111.322426                       # Average number of cycles messages are stalled in this MB
system.ruby.dir_cntrl11.requestToMemory.avg_buf_msgs     0.429846                       # Average number of messages in buffer
system.ruby.dir_cntrl11.requestToMemory.avg_stall_time    15.336639                       # Average number of cycles messages are stalled in this MB
system.ruby.dir_cntrl11.responseFromDir.avg_buf_msgs     0.221782                       # Average number of messages in buffer
system.ruby.dir_cntrl11.responseFromDir.avg_stall_time    19.272104                       # Average number of cycles messages are stalled in this MB
system.ruby.dir_cntrl11.responseFromMemory.avg_buf_msgs     0.411006                       # Average number of messages in buffer
system.ruby.dir_cntrl11.responseFromMemory.avg_stall_time    14.472319                       # Average number of cycles messages are stalled in this MB
system.ruby.dir_cntrl15.forwardFromDir.avg_buf_msgs     0.275078                       # Average number of messages in buffer
system.ruby.dir_cntrl15.forwardFromDir.avg_stall_time    17.542638                       # Average number of cycles messages are stalled in this MB
system.ruby.dir_cntrl15.requestToDir.avg_buf_msgs     1.899603                       # Average number of messages in buffer
system.ruby.dir_cntrl15.requestToDir.avg_stall_time    98.914146                       # Average number of cycles messages are stalled in this MB
system.ruby.dir_cntrl15.requestToMemory.avg_buf_msgs     0.434722                       # Average number of messages in buffer
system.ruby.dir_cntrl15.requestToMemory.avg_stall_time    18.859858                       # Average number of cycles messages are stalled in this MB
system.ruby.dir_cntrl15.responseFromDir.avg_buf_msgs     0.243596                       # Average number of messages in buffer
system.ruby.dir_cntrl15.responseFromDir.avg_stall_time    14.131218                       # Average number of cycles messages are stalled in this MB
system.ruby.dir_cntrl15.responseFromMemory.avg_buf_msgs     0.493390                       # Average number of messages in buffer
system.ruby.dir_cntrl15.responseFromMemory.avg_stall_time    16.837382                       # Average number of cycles messages are stalled in this MB
system.ruby.dir_cntrl3.forwardFromDir.avg_buf_msgs     0.283094                       # Average number of messages in buffer
system.ruby.dir_cntrl3.forwardFromDir.avg_stall_time    11.252851                       # Average number of cycles messages are stalled in this MB
system.ruby.dir_cntrl3.requestToDir.avg_buf_msgs     1.734424                       # Average number of messages in buffer
system.ruby.dir_cntrl3.requestToDir.avg_stall_time    86.794910                       # Average number of cycles messages are stalled in this MB
system.ruby.dir_cntrl3.requestToMemory.avg_buf_msgs     0.415551                       # Average number of messages in buffer
system.ruby.dir_cntrl3.requestToMemory.avg_stall_time    13.330028                       # Average number of cycles messages are stalled in this MB
system.ruby.dir_cntrl3.responseFromDir.avg_buf_msgs     0.180053                       # Average number of messages in buffer
system.ruby.dir_cntrl3.responseFromDir.avg_stall_time     8.034953                       # Average number of cycles messages are stalled in this MB
system.ruby.dir_cntrl3.responseFromMemory.avg_buf_msgs     0.479508                       # Average number of messages in buffer
system.ruby.dir_cntrl3.responseFromMemory.avg_stall_time    18.173442                       # Average number of cycles messages are stalled in this MB
system.ruby.dir_cntrl7.forwardFromDir.avg_buf_msgs     0.407949                       # Average number of messages in buffer
system.ruby.dir_cntrl7.forwardFromDir.avg_stall_time    18.374153                       # Average number of cycles messages are stalled in this MB
system.ruby.dir_cntrl7.requestToDir.avg_buf_msgs     2.217402                       # Average number of messages in buffer
system.ruby.dir_cntrl7.requestToDir.avg_stall_time   104.078004                       # Average number of cycles messages are stalled in this MB
system.ruby.dir_cntrl7.requestToMemory.avg_buf_msgs     0.450256                       # Average number of messages in buffer
system.ruby.dir_cntrl7.requestToMemory.avg_stall_time    21.867460                       # Average number of cycles messages are stalled in this MB
system.ruby.dir_cntrl7.responseFromDir.avg_buf_msgs     0.213932                       # Average number of messages in buffer
system.ruby.dir_cntrl7.responseFromDir.avg_stall_time    15.917782                       # Average number of cycles messages are stalled in this MB
system.ruby.dir_cntrl7.responseFromMemory.avg_buf_msgs     0.404892                       # Average number of messages in buffer
system.ruby.dir_cntrl7.responseFromMemory.avg_stall_time    13.039002                       # Average number of cycles messages are stalled in this MB
system.ruby.hit_latency_hist_seqr::bucket_size            1                      
system.ruby.hit_latency_hist_seqr::max_bucket            9                      
system.ruby.hit_latency_hist_seqr::samples            7                      
system.ruby.hit_latency_hist_seqr        |           7    100.00%    100.00% |           0      0.00%    100.00% |           0      0.00%    100.00% |           0      0.00%    100.00% |           0      0.00%    100.00% |           0      0.00%    100.00% |           0      0.00%    100.00% |           0      0.00%    100.00% |           0      0.00%    100.00% |           0      0.00%    100.00%
system.ruby.hit_latency_hist_seqr::total            7                      
system.ruby.l1_cntrl0.cacheMemory.demand_accesses           57                       # Number of cache demand accesses
system.ruby.l1_cntrl0.cacheMemory.demand_hits            1                       # Number of cache demand hits
system.ruby.l1_cntrl0.cacheMemory.demand_misses           56                       # Number of cache demand misses
system.ruby.l1_cntrl0.forwardToCache.avg_buf_msgs     0.094282                       # Average number of messages in buffer
system.ruby.l1_cntrl0.forwardToCache.avg_stall_time    41.709717                       # Average number of cycles messages are stalled in this MB
system.ruby.l1_cntrl0.fully_busy_cycles            14                       # cycles for which number of transistions == max transitions
system.ruby.l1_cntrl0.mandatoryQueue.avg_buf_msgs     0.762105                       # Average number of messages in buffer
system.ruby.l1_cntrl0.mandatoryQueue.avg_stall_time   111.455214                       # Average number of cycles messages are stalled in this MB
system.ruby.l1_cntrl0.requestFromCache.avg_buf_msgs     0.169311                       # Average number of messages in buffer
system.ruby.l1_cntrl0.requestFromCache.avg_stall_time    32.007437                       # Average number of cycles messages are stalled in this MB
system.ruby.l1_cntrl0.responseFromCache.avg_buf_msgs     0.027681                       # Average number of messages in buffer
system.ruby.l1_cntrl0.responseFromCache.avg_stall_time     6.570236                       # Average number of cycles messages are stalled in this MB
system.ruby.l1_cntrl0.responseToCache.avg_buf_msgs     0.069410                       # Average number of messages in buffer
system.ruby.l1_cntrl0.responseToCache.avg_stall_time    53.542307                       # Average number of cycles messages are stalled in this MB
system.ruby.l1_cntrl1.cacheMemory.demand_accesses           72                       # Number of cache demand accesses
system.ruby.l1_cntrl1.cacheMemory.demand_hits            1                       # Number of cache demand hits
system.ruby.l1_cntrl1.cacheMemory.demand_misses           71                       # Number of cache demand misses
system.ruby.l1_cntrl1.forwardToCache.avg_buf_msgs     0.098083                       # Average number of messages in buffer
system.ruby.l1_cntrl1.forwardToCache.avg_stall_time    39.728227                       # Average number of cycles messages are stalled in this MB
system.ruby.l1_cntrl1.fully_busy_cycles            19                       # cycles for which number of transistions == max transitions
system.ruby.l1_cntrl1.mandatoryQueue.avg_buf_msgs     1.986696                       # Average number of messages in buffer
system.ruby.l1_cntrl1.mandatoryQueue.avg_stall_time   273.647166                       # Average number of cycles messages are stalled in this MB
system.ruby.l1_cntrl1.requestFromCache.avg_buf_msgs     0.410428                       # Average number of messages in buffer
system.ruby.l1_cntrl1.requestFromCache.avg_stall_time    37.296810                       # Average number of cycles messages are stalled in this MB
system.ruby.l1_cntrl1.responseFromCache.avg_buf_msgs     0.020327                       # Average number of messages in buffer
system.ruby.l1_cntrl1.responseFromCache.avg_stall_time    11.054784                       # Average number of cycles messages are stalled in this MB
system.ruby.l1_cntrl1.responseToCache.avg_buf_msgs     0.108825                       # Average number of messages in buffer
system.ruby.l1_cntrl1.responseToCache.avg_stall_time    47.245579                       # Average number of cycles messages are stalled in this MB
system.ruby.l1_cntrl10.cacheMemory.demand_accesses           54                       # Number of cache demand accesses
system.ruby.l1_cntrl10.cacheMemory.demand_hits            0                       # Number of cache demand hits
system.ruby.l1_cntrl10.cacheMemory.demand_misses           54                       # Number of cache demand misses
system.ruby.l1_cntrl10.forwardToCache.avg_buf_msgs     0.083540                       # Average number of messages in buffer
system.ruby.l1_cntrl10.forwardToCache.avg_stall_time    26.638737                       # Average number of cycles messages are stalled in this MB
system.ruby.l1_cntrl10.fully_busy_cycles            7                       # cycles for which number of transistions == max transitions
system.ruby.l1_cntrl10.mandatoryQueue.avg_buf_msgs     0.431829                       # Average number of messages in buffer
system.ruby.l1_cntrl10.mandatoryQueue.avg_stall_time    46.973062                       # Average number of cycles messages are stalled in this MB
system.ruby.l1_cntrl10.requestFromCache.avg_buf_msgs     0.194100                       # Average number of messages in buffer
system.ruby.l1_cntrl10.requestFromCache.avg_stall_time    31.482482                       # Average number of cycles messages are stalled in this MB
system.ruby.l1_cntrl10.responseFromCache.avg_buf_msgs     0.013717                       # Average number of messages in buffer
system.ruby.l1_cntrl10.responseFromCache.avg_stall_time    11.701702                       # Average number of cycles messages are stalled in this MB
system.ruby.l1_cntrl10.responseToCache.avg_buf_msgs     0.070154                       # Average number of messages in buffer
system.ruby.l1_cntrl10.responseToCache.avg_stall_time    31.392662                       # Average number of cycles messages are stalled in this MB
system.ruby.l1_cntrl11.cacheMemory.demand_accesses           68                       # Number of cache demand accesses
system.ruby.l1_cntrl11.cacheMemory.demand_hits            0                       # Number of cache demand hits
system.ruby.l1_cntrl11.cacheMemory.demand_misses           68                       # Number of cache demand misses
system.ruby.l1_cntrl11.forwardToCache.avg_buf_msgs     0.168319                       # Average number of messages in buffer
system.ruby.l1_cntrl11.forwardToCache.avg_stall_time    48.553132                       # Average number of cycles messages are stalled in this MB
system.ruby.l1_cntrl11.fully_busy_cycles           27                       # cycles for which number of transistions == max transitions
system.ruby.l1_cntrl11.mandatoryQueue.avg_buf_msgs     2.364898                       # Average number of messages in buffer
system.ruby.l1_cntrl11.mandatoryQueue.avg_stall_time   259.616014                       # Average number of cycles messages are stalled in this MB
system.ruby.l1_cntrl11.requestFromCache.avg_buf_msgs     0.284912                       # Average number of messages in buffer
system.ruby.l1_cntrl11.requestFromCache.avg_stall_time    40.209387                       # Average number of cycles messages are stalled in this MB
system.ruby.l1_cntrl11.responseFromCache.avg_buf_msgs     0.017105                       # Average number of messages in buffer
system.ruby.l1_cntrl11.responseFromCache.avg_stall_time    10.998430                       # Average number of cycles messages are stalled in this MB
system.ruby.l1_cntrl11.responseToCache.avg_buf_msgs     0.125930                       # Average number of messages in buffer
system.ruby.l1_cntrl11.responseToCache.avg_stall_time    42.953066                       # Average number of cycles messages are stalled in this MB
system.ruby.l1_cntrl12.cacheMemory.demand_accesses           70                       # Number of cache demand accesses
system.ruby.l1_cntrl12.cacheMemory.demand_hits            0                       # Number of cache demand hits
system.ruby.l1_cntrl12.cacheMemory.demand_misses           70                       # Number of cache demand misses
system.ruby.l1_cntrl12.forwardToCache.avg_buf_msgs     0.198232                       # Average number of messages in buffer
system.ruby.l1_cntrl12.forwardToCache.avg_stall_time    55.349694                       # Average number of cycles messages are stalled in this MB
system.ruby.l1_cntrl12.fully_busy_cycles           21                       # cycles for which number of transistions == max transitions
system.ruby.l1_cntrl12.mandatoryQueue.avg_buf_msgs     0.767311                       # Average number of messages in buffer
system.ruby.l1_cntrl12.mandatoryQueue.avg_stall_time    87.806644                       # Average number of cycles messages are stalled in this MB
system.ruby.l1_cntrl12.requestFromCache.avg_buf_msgs     0.290861                       # Average number of messages in buffer
system.ruby.l1_cntrl12.requestFromCache.avg_stall_time    29.528756                       # Average number of cycles messages are stalled in this MB
system.ruby.l1_cntrl12.responseFromCache.avg_buf_msgs     0.011816                       # Average number of messages in buffer
system.ruby.l1_cntrl12.responseFromCache.avg_stall_time    14.334242                       # Average number of cycles messages are stalled in this MB
system.ruby.l1_cntrl12.responseToCache.avg_buf_msgs     0.093042                       # Average number of messages in buffer
system.ruby.l1_cntrl12.responseToCache.avg_stall_time    34.258304                       # Average number of cycles messages are stalled in this MB
system.ruby.l1_cntrl13.cacheMemory.demand_accesses           52                       # Number of cache demand accesses
system.ruby.l1_cntrl13.cacheMemory.demand_hits            0                       # Number of cache demand hits
system.ruby.l1_cntrl13.cacheMemory.demand_misses           52                       # Number of cache demand misses
system.ruby.l1_cntrl13.forwardToCache.avg_buf_msgs     0.099983                       # Average number of messages in buffer
system.ruby.l1_cntrl13.forwardToCache.avg_stall_time    34.389853                       # Average number of cycles messages are stalled in this MB
system.ruby.l1_cntrl13.fully_busy_cycles            9                       # cycles for which number of transistions == max transitions
system.ruby.l1_cntrl13.mandatoryQueue.avg_buf_msgs     0.541563                       # Average number of messages in buffer
system.ruby.l1_cntrl13.mandatoryQueue.avg_stall_time    67.981739                       # Average number of cycles messages are stalled in this MB
system.ruby.l1_cntrl13.requestFromCache.avg_buf_msgs     0.287308                       # Average number of messages in buffer
system.ruby.l1_cntrl13.requestFromCache.avg_stall_time    20.766981                       # Average number of cycles messages are stalled in this MB
system.ruby.l1_cntrl13.responseFromCache.avg_buf_msgs     0.020823                       # Average number of messages in buffer
system.ruby.l1_cntrl13.responseFromCache.avg_stall_time    19.389688                       # Average number of cycles messages are stalled in this MB
system.ruby.l1_cntrl13.responseToCache.avg_buf_msgs     0.029417                       # Average number of messages in buffer
system.ruby.l1_cntrl13.responseToCache.avg_stall_time    37.117832                       # Average number of cycles messages are stalled in this MB
system.ruby.l1_cntrl14.cacheMemory.demand_accesses           66                       # Number of cache demand accesses
system.ruby.l1_cntrl14.cacheMemory.demand_hits            1                       # Number of cache demand hits
system.ruby.l1_cntrl14.cacheMemory.demand_misses           65                       # Number of cache demand misses
system.ruby.l1_cntrl14.forwardToCache.avg_buf_msgs     0.172451                       # Average number of messages in buffer
system.ruby.l1_cntrl14.forwardToCache.avg_stall_time    49.736077                       # Average number of cycles messages are stalled in this MB
system.ruby.l1_cntrl14.fully_busy_cycles           15                       # cycles for which number of transistions == max transitions
system.ruby.l1_cntrl14.mandatoryQueue.avg_buf_msgs     1.282267                       # Average number of messages in buffer
system.ruby.l1_cntrl14.mandatoryQueue.avg_stall_time   170.047017                       # Average number of cycles messages are stalled in this MB
system.ruby.l1_cntrl14.requestFromCache.avg_buf_msgs     0.309122                       # Average number of messages in buffer
system.ruby.l1_cntrl14.requestFromCache.avg_stall_time    33.222773                       # Average number of cycles messages are stalled in this MB
system.ruby.l1_cntrl14.responseFromCache.avg_buf_msgs     0.030326                       # Average number of messages in buffer
system.ruby.l1_cntrl14.responseFromCache.avg_stall_time    15.143034                       # Average number of cycles messages are stalled in this MB
system.ruby.l1_cntrl14.responseToCache.avg_buf_msgs     0.067344                       # Average number of messages in buffer
system.ruby.l1_cntrl14.responseToCache.avg_stall_time    35.099818                       # Average number of cycles messages are stalled in this MB
system.ruby.l1_cntrl15.cacheMemory.demand_accesses           65                       # Number of cache demand accesses
system.ruby.l1_cntrl15.cacheMemory.demand_hits            0                       # Number of cache demand hits
system.ruby.l1_cntrl15.cacheMemory.demand_misses           65                       # Number of cache demand misses
system.ruby.l1_cntrl15.forwardToCache.avg_buf_msgs     0.137498                       # Average number of messages in buffer
system.ruby.l1_cntrl15.forwardToCache.avg_stall_time    43.161544                       # Average number of cycles messages are stalled in this MB
system.ruby.l1_cntrl15.fully_busy_cycles           23                       # cycles for which number of transistions == max transitions
system.ruby.l1_cntrl15.mandatoryQueue.avg_buf_msgs     2.586019                       # Average number of messages in buffer
system.ruby.l1_cntrl15.mandatoryQueue.avg_stall_time   349.028012                       # Average number of cycles messages are stalled in this MB
system.ruby.l1_cntrl15.requestFromCache.avg_buf_msgs     0.318542                       # Average number of messages in buffer
system.ruby.l1_cntrl15.requestFromCache.avg_stall_time    42.901752                       # Average number of cycles messages are stalled in this MB
system.ruby.l1_cntrl15.responseFromCache.avg_buf_msgs     0.021236                       # Average number of messages in buffer
system.ruby.l1_cntrl15.responseFromCache.avg_stall_time    18.969840                       # Average number of cycles messages are stalled in this MB
system.ruby.l1_cntrl15.responseToCache.avg_buf_msgs     0.085110                       # Average number of messages in buffer
system.ruby.l1_cntrl15.responseToCache.avg_stall_time    52.590068                       # Average number of cycles messages are stalled in this MB
system.ruby.l1_cntrl2.cacheMemory.demand_accesses           64                       # Number of cache demand accesses
system.ruby.l1_cntrl2.cacheMemory.demand_hits            1                       # Number of cache demand hits
system.ruby.l1_cntrl2.cacheMemory.demand_misses           63                       # Number of cache demand misses
system.ruby.l1_cntrl2.forwardToCache.avg_buf_msgs     0.111139                       # Average number of messages in buffer
system.ruby.l1_cntrl2.forwardToCache.avg_stall_time    29.132210                       # Average number of cycles messages are stalled in this MB
system.ruby.l1_cntrl2.fully_busy_cycles            13                       # cycles for which number of transistions == max transitions
system.ruby.l1_cntrl2.mandatoryQueue.avg_buf_msgs     0.733763                       # Average number of messages in buffer
system.ruby.l1_cntrl2.mandatoryQueue.avg_stall_time    87.740704                       # Average number of cycles messages are stalled in this MB
system.ruby.l1_cntrl2.requestFromCache.avg_buf_msgs     0.207238                       # Average number of messages in buffer
system.ruby.l1_cntrl2.requestFromCache.avg_stall_time    30.856222                       # Average number of cycles messages are stalled in this MB
system.ruby.l1_cntrl2.responseFromCache.avg_buf_msgs     0.019749                       # Average number of messages in buffer
system.ruby.l1_cntrl2.responseFromCache.avg_stall_time    10.835730                       # Average number of cycles messages are stalled in this MB
system.ruby.l1_cntrl2.responseToCache.avg_buf_msgs     0.089159                       # Average number of messages in buffer
system.ruby.l1_cntrl2.responseToCache.avg_stall_time    38.594365                       # Average number of cycles messages are stalled in this MB
system.ruby.l1_cntrl3.cacheMemory.demand_accesses           64                       # Number of cache demand accesses
system.ruby.l1_cntrl3.cacheMemory.demand_hits            0                       # Number of cache demand hits
system.ruby.l1_cntrl3.cacheMemory.demand_misses           64                       # Number of cache demand misses
system.ruby.l1_cntrl3.forwardToCache.avg_buf_msgs     0.146505                       # Average number of messages in buffer
system.ruby.l1_cntrl3.forwardToCache.avg_stall_time    29.236407                       # Average number of cycles messages are stalled in this MB
system.ruby.l1_cntrl3.fully_busy_cycles            18                       # cycles for which number of transistions == max transitions
system.ruby.l1_cntrl3.mandatoryQueue.avg_buf_msgs     1.295984                       # Average number of messages in buffer
system.ruby.l1_cntrl3.mandatoryQueue.avg_stall_time   148.079491                       # Average number of cycles messages are stalled in this MB
system.ruby.l1_cntrl3.requestFromCache.avg_buf_msgs     0.527351                       # Average number of messages in buffer
system.ruby.l1_cntrl3.requestFromCache.avg_stall_time    55.680797                       # Average number of cycles messages are stalled in this MB
system.ruby.l1_cntrl3.responseFromCache.avg_buf_msgs     0.039002                       # Average number of messages in buffer
system.ruby.l1_cntrl3.responseFromCache.avg_stall_time     9.874566                       # Average number of cycles messages are stalled in this MB
system.ruby.l1_cntrl3.responseToCache.avg_buf_msgs     0.119236                       # Average number of messages in buffer
system.ruby.l1_cntrl3.responseToCache.avg_stall_time    40.713849                       # Average number of cycles messages are stalled in this MB
system.ruby.l1_cntrl4.cacheMemory.demand_accesses           59                       # Number of cache demand accesses
system.ruby.l1_cntrl4.cacheMemory.demand_hits            0                       # Number of cache demand hits
system.ruby.l1_cntrl4.cacheMemory.demand_misses           59                       # Number of cache demand misses
system.ruby.l1_cntrl4.forwardToCache.avg_buf_msgs     0.120145                       # Average number of messages in buffer
system.ruby.l1_cntrl4.forwardToCache.avg_stall_time    44.939018                       # Average number of cycles messages are stalled in this MB
system.ruby.l1_cntrl4.fully_busy_cycles            12                       # cycles for which number of transistions == max transitions
system.ruby.l1_cntrl4.mandatoryQueue.avg_buf_msgs     0.575277                       # Average number of messages in buffer
system.ruby.l1_cntrl4.mandatoryQueue.avg_stall_time    71.700876                       # Average number of cycles messages are stalled in this MB
system.ruby.l1_cntrl4.requestFromCache.avg_buf_msgs     0.253016                       # Average number of messages in buffer
system.ruby.l1_cntrl4.requestFromCache.avg_stall_time    35.568749                       # Average number of cycles messages are stalled in this MB
system.ruby.l1_cntrl4.responseFromCache.avg_buf_msgs     0.030739                       # Average number of messages in buffer
system.ruby.l1_cntrl4.responseFromCache.avg_stall_time    11.197157                       # Average number of cycles messages are stalled in this MB
system.ruby.l1_cntrl4.responseToCache.avg_buf_msgs     0.098496                       # Average number of messages in buffer
system.ruby.l1_cntrl4.responseToCache.avg_stall_time    51.248554                       # Average number of cycles messages are stalled in this MB
system.ruby.l1_cntrl5.cacheMemory.demand_accesses           65                       # Number of cache demand accesses
system.ruby.l1_cntrl5.cacheMemory.demand_hits            2                       # Number of cache demand hits
system.ruby.l1_cntrl5.cacheMemory.demand_misses           63                       # Number of cache demand misses
system.ruby.l1_cntrl5.forwardToCache.avg_buf_msgs     0.097091                       # Average number of messages in buffer
system.ruby.l1_cntrl5.forwardToCache.avg_stall_time    43.610147                       # Average number of cycles messages are stalled in this MB
system.ruby.l1_cntrl5.fully_busy_cycles            19                       # cycles for which number of transistions == max transitions
system.ruby.l1_cntrl5.mandatoryQueue.avg_buf_msgs     3.212940                       # Average number of messages in buffer
system.ruby.l1_cntrl5.mandatoryQueue.avg_stall_time   418.803421                       # Average number of cycles messages are stalled in this MB
system.ruby.l1_cntrl5.requestFromCache.avg_buf_msgs     0.282681                       # Average number of messages in buffer
system.ruby.l1_cntrl5.requestFromCache.avg_stall_time    33.607503                       # Average number of cycles messages are stalled in this MB
system.ruby.l1_cntrl5.responseFromCache.avg_buf_msgs     0.021236                       # Average number of messages in buffer
system.ruby.l1_cntrl5.responseFromCache.avg_stall_time    28.468104                       # Average number of cycles messages are stalled in this MB
system.ruby.l1_cntrl5.responseToCache.avg_buf_msgs     0.075607                       # Average number of messages in buffer
system.ruby.l1_cntrl5.responseToCache.avg_stall_time    40.401421                       # Average number of cycles messages are stalled in this MB
system.ruby.l1_cntrl6.cacheMemory.demand_accesses           44                       # Number of cache demand accesses
system.ruby.l1_cntrl6.cacheMemory.demand_hits            1                       # Number of cache demand hits
system.ruby.l1_cntrl6.cacheMemory.demand_misses           43                       # Number of cache demand misses
system.ruby.l1_cntrl6.forwardToCache.avg_buf_msgs     0.057181                       # Average number of messages in buffer
system.ruby.l1_cntrl6.forwardToCache.avg_stall_time    43.260783                       # Average number of cycles messages are stalled in this MB
system.ruby.l1_cntrl6.fully_busy_cycles             6                       # cycles for which number of transistions == max transitions
system.ruby.l1_cntrl6.mandatoryQueue.avg_buf_msgs     0.192695                       # Average number of messages in buffer
system.ruby.l1_cntrl6.mandatoryQueue.avg_stall_time    25.731284                       # Average number of cycles messages are stalled in this MB
system.ruby.l1_cntrl6.requestFromCache.avg_buf_msgs     0.123533                       # Average number of messages in buffer
system.ruby.l1_cntrl6.requestFromCache.avg_stall_time    21.496943                       # Average number of cycles messages are stalled in this MB
system.ruby.l1_cntrl6.responseFromCache.avg_buf_msgs     0.057842                       # Average number of messages in buffer
system.ruby.l1_cntrl6.responseFromCache.avg_stall_time    54.547265                       # Average number of cycles messages are stalled in this MB
system.ruby.l1_cntrl6.responseToCache.avg_buf_msgs     0.073624                       # Average number of messages in buffer
system.ruby.l1_cntrl6.responseToCache.avg_stall_time    51.056189                       # Average number of cycles messages are stalled in this MB
system.ruby.l1_cntrl7.cacheMemory.demand_accesses           61                       # Number of cache demand accesses
system.ruby.l1_cntrl7.cacheMemory.demand_hits            0                       # Number of cache demand hits
system.ruby.l1_cntrl7.cacheMemory.demand_misses           61                       # Number of cache demand misses
system.ruby.l1_cntrl7.forwardToCache.avg_buf_msgs     0.147248                       # Average number of messages in buffer
system.ruby.l1_cntrl7.forwardToCache.avg_stall_time    44.132953                       # Average number of cycles messages are stalled in this MB
system.ruby.l1_cntrl7.fully_busy_cycles            16                       # cycles for which number of transistions == max transitions
system.ruby.l1_cntrl7.mandatoryQueue.avg_buf_msgs     1.186581                       # Average number of messages in buffer
system.ruby.l1_cntrl7.mandatoryQueue.avg_stall_time   180.826144                       # Average number of cycles messages are stalled in this MB
system.ruby.l1_cntrl7.requestFromCache.avg_buf_msgs     0.400347                       # Average number of messages in buffer
system.ruby.l1_cntrl7.requestFromCache.avg_stall_time    47.923484                       # Average number of cycles messages are stalled in this MB
system.ruby.l1_cntrl7.responseFromCache.avg_buf_msgs     0.010577                       # Average number of messages in buffer
system.ruby.l1_cntrl7.responseFromCache.avg_stall_time     1.971244                       # Average number of cycles messages are stalled in this MB
system.ruby.l1_cntrl7.responseToCache.avg_buf_msgs     0.121798                       # Average number of messages in buffer
system.ruby.l1_cntrl7.responseToCache.avg_stall_time    46.110478                       # Average number of cycles messages are stalled in this MB
system.ruby.l1_cntrl8.cacheMemory.demand_accesses           59                       # Number of cache demand accesses
system.ruby.l1_cntrl8.cacheMemory.demand_hits            0                       # Number of cache demand hits
system.ruby.l1_cntrl8.cacheMemory.demand_misses           59                       # Number of cache demand misses
system.ruby.l1_cntrl8.forwardToCache.avg_buf_msgs     0.071145                       # Average number of messages in buffer
system.ruby.l1_cntrl8.forwardToCache.avg_stall_time    31.301273                       # Average number of cycles messages are stalled in this MB
system.ruby.l1_cntrl8.fully_busy_cycles            14                       # cycles for which number of transistions == max transitions
system.ruby.l1_cntrl8.mandatoryQueue.avg_buf_msgs     0.721368                       # Average number of messages in buffer
system.ruby.l1_cntrl8.mandatoryQueue.avg_stall_time    74.640638                       # Average number of cycles messages are stalled in this MB
system.ruby.l1_cntrl8.requestFromCache.avg_buf_msgs     0.422823                       # Average number of messages in buffer
system.ruby.l1_cntrl8.requestFromCache.avg_stall_time    54.698232                       # Average number of cycles messages are stalled in this MB
system.ruby.l1_cntrl8.responseFromCache.avg_buf_msgs     0.012477                       # Average number of messages in buffer
system.ruby.l1_cntrl8.responseFromCache.avg_stall_time     2.506941                       # Average number of cycles messages are stalled in this MB
system.ruby.l1_cntrl8.responseToCache.avg_buf_msgs     0.159808                       # Average number of messages in buffer
system.ruby.l1_cntrl8.responseToCache.avg_stall_time    58.387705                       # Average number of cycles messages are stalled in this MB
system.ruby.l1_cntrl9.cacheMemory.demand_accesses           44                       # Number of cache demand accesses
[...]
system.ruby.network.int_links42.dst_net_bridge.power_state.pwrStateResidencyTicks::UNDEFINED        12101                       # Cumulative time (in ticks) in various power states
system.ruby.network.int_links42.network_link.power_state.pwrStateResidencyTicks::UNDEFINED        12101                       # Cumulative time (in ticks) in various power states
system.ruby.network.int_links42.src_cred_bridge.power_state.pwrStateResidencyTicks::UNDEFINED        12101                       # Cumulative time (in ticks) in various power states
system.ruby.network.int_links42.src_net_bridge.power_state.pwrStateResidencyTicks::UNDEFINED        12101                       # Cumulative time (in ticks) in various power states
system.ruby.network.int_links43.credit_link.power_state.pwrStateResidencyTicks::UNDEFINED        12101                       # Cumulative time (in ticks) in various power states
system.ruby.network.int_links43.dst_cred_bridge.power_state.pwrStateResidencyTicks::UNDEFINED        12101                       # Cumulative time (in ticks) in various power states
system.ruby.network.int_links43.dst_net_bridge.power_state.pwrStateResidencyTicks::UNDEFINED        12101                       # Cumulative time (in ticks) in various power states
system.ruby.network.int_links43.network_link.power_state.pwrStateResidencyTicks::UNDEFINED        12101                       # Cumulative time (in ticks) in various power states
system.ruby.network.int_links43.src_cred_bridge.power_state.pwrStateResidencyTicks::UNDEFINED        12101                       # Cumulative time (in ticks) in various power states
system.ruby.network.int_links43.src_net_bridge.power_state.pwrStateResidencyTicks::UNDEFINED        12101                       # Cumulative time (in ticks) in various power states
system.ruby.network.int_links44.credit_link.power_state.pwrStateResidencyTicks::UNDEFINED        12101                       # Cumulative time (in ticks) in various power states
system.ruby.network.int_links44.dst_cred_bridge.power_state.pwrStateResidencyTicks::UNDEFINED        12101                       # Cumulative time (in ticks) in various power states
system.ruby.network.int_links44.dst_net_bridge.power_state.pwrStateResidencyTicks::UNDEFINED        12101                       # Cumulative time (in ticks) in various power states
system.ruby.network.int_links44.network_link.power_state.pwrStateResidencyTicks::UNDEFINED        12101                       # Cumulative time (in ticks) in various power states
system.ruby.network.int_links44.src_cred_bridge.power_state.pwrStateResidencyTicks::UNDEFINED        12101                       # Cumulative time (in ticks) in various power states
system.ruby.network.int_links44.src_net_bridge.power_state.pwrStateResidencyTicks::UNDEFINED        12101                       # Cumulative time (in ticks) in various power states
system.ruby.network.int_links45.credit_link.power_state.pwrStateResidencyTicks::UNDEFINED        12101                       # Cumulative time (in ticks) in various power states
system.ruby.network.int_links45.dst_cred_bridge.power_state.pwrStateResidencyTicks::UNDEFINED        12101                       # Cumulative time (in ticks) in various power states
system.ruby.network.int_links45.dst_net_bridge.power_state.pwrStateResidencyTicks::UNDEFINED        12101                       # Cumulative time (in ticks) in various power states
system.ruby.network.int_links45.network_link.power_state.pwrStateResidencyTicks::UNDEFINED        12101                       # Cumulative time (in ticks) in various power states
system.ruby.network.int_links45.src_cred_bridge.power_state.pwrStateResidencyTicks::UNDEFINED        12101                       # Cumulative time (in ticks) in various power states
system.ruby.network.int_links45.src_net_bridge.power_state.pwrStateResidencyTicks::UNDEFINED        12101                       # Cumulative time (in ticks) in various power states
system.ruby.network.int_links46.credit_link.power_state.pwrStateResidencyTicks::UNDEFINED        12101                       # Cumulative time (in ticks) in various power states
system.ruby.network.int_links46.dst_cred_bridge.power_state.pwrStateResidencyTicks::UNDEFINED        12101                       # Cumulative time (in ticks) in various power states
system.ruby.network.int_links46.dst_net_bridge.power_state.pwrStateResidencyTicks::UNDEFINED        12101                       # Cumulative time (in ticks) in various power states
system.ruby.network.int_links46.network_link.power_state.pwrStateResidencyTicks::UNDEFINED        12101                       # Cumulative time (in ticks) in various power states
system.ruby.network.int_links46.src_cred_bridge.power_state.pwrStateResidencyTicks::UNDEFINED        12101                       # Cumulative time (in ticks) in various power states
system.ruby.network.int_links46.src_net_bridge.power_state.pwrStateResidencyTicks::UNDEFINED        12101                       # Cumulative time (in ticks) in various power states
system.ruby.network.int_links47.credit_link.power_state.pwrStateResidencyTicks::UNDEFINED        12101                       # Cumulative time (in ticks) in various power states
system.ruby.network.int_links47.dst_cred_bridge.power_state.pwrStateResidencyTicks::UNDEFINED        12101                       # Cumulative time (in ticks) in various power states
system.ruby.network.int_links47.dst_net_bridge.power_state.pwrStateResidencyTicks::UNDEFINED        12101                       # Cumulative time (in ticks) in various power states
system.ruby.network.int_links47.network_link.power_state.pwrStateResidencyTicks::UNDEFINED        12101                       # Cumulative time (in ticks) in various power states
system.ruby.network.int_links47.src_cred_bridge.power_state.pwrStateResidencyTicks::UNDEFINED        12101                       # Cumulative time (in ticks) in various power states
system.ruby.network.int_links47.src_net_bridge.power_state.pwrStateResidencyTicks::UNDEFINED        12101                       # Cumulative time (in ticks) in various power states
system.ruby.network.int_links5.credit_link.power_state.pwrStateResidencyTicks::UNDEFINED        12101                       # Cumulative time (in ticks) in various power states
system.ruby.network.int_links5.dst_cred_bridge.power_state.pwrStateResidencyTicks::UNDEFINED        12101                       # Cumulative time (in ticks) in various power states
system.ruby.network.int_links5.dst_net_bridge.power_state.pwrStateResidencyTicks::UNDEFINED        12101                       # Cumulative time (in ticks) in various power states
system.ruby.network.int_links5.network_link.power_state.pwrStateResidencyTicks::UNDEFINED        12101                       # Cumulative time (in ticks) in various power states
system.ruby.network.int_links5.src_cred_bridge.power_state.pwrStateResidencyTicks::UNDEFINED        12101                       # Cumulative time (in ticks) in various power states
system.ruby.network.int_links5.src_net_bridge.power_state.pwrStateResidencyTicks::UNDEFINED        12101                       # Cumulative time (in ticks) in various power states
system.ruby.network.int_links6.credit_link.power_state.pwrStateResidencyTicks::UNDEFINED        12101                       # Cumulative time (in ticks) in various power states
system.ruby.network.int_links6.dst_cred_bridge.power_state.pwrStateResidencyTicks::UNDEFINED        12101                       # Cumulative time (in ticks) in various power states
system.ruby.network.int_links6.dst_net_bridge.power_state.pwrStateResidencyTicks::UNDEFINED        12101                       # Cumulative time (in ticks) in various power states
system.ruby.network.int_links6.network_link.power_state.pwrStateResidencyTicks::UNDEFINED        12101                       # Cumulative time (in ticks) in various power states
system.ruby.network.int_links6.src_cred_bridge.power_state.pwrStateResidencyTicks::UNDEFINED        12101                       # Cumulative time (in ticks) in various power states
system.ruby.network.int_links6.src_net_bridge.power_state.pwrStateResidencyTicks::UNDEFINED        12101                       # Cumulative time (in ticks) in various power states
system.ruby.network.int_links7.credit_link.power_state.pwrStateResidencyTicks::UNDEFINED        12101                       # Cumulative time (in ticks) in various power states
system.ruby.network.int_links7.dst_cred_bridge.power_state.pwrStateResidencyTicks::UNDEFINED        12101                       # Cumulative time (in ticks) in various power states
system.ruby.network.int_links7.dst_net_bridge.power_state.pwrStateResidencyTicks::UNDEFINED        12101                       # Cumulative time (in ticks) in various power states
system.ruby.network.int_links7.network_link.power_state.pwrStateResidencyTicks::UNDEFINED        12101                       # Cumulative time (in ticks) in various power states
system.ruby.network.int_links7.src_cred_bridge.power_state.pwrStateResidencyTicks::UNDEFINED        12101                       # Cumulative time (in ticks) in various power states
system.ruby.network.int_links7.src_net_bridge.power_state.pwrStateResidencyTicks::UNDEFINED        12101                       # Cumulative time (in ticks) in various power states
system.ruby.network.int_links8.credit_link.power_state.pwrStateResidencyTicks::UNDEFINED        12101                       # Cumulative time (in ticks) in various power states
system.ruby.network.int_links8.dst_cred_bridge.power_state.pwrStateResidencyTicks::UNDEFINED        12101                       # Cumulative time (in ticks) in various power states
system.ruby.network.int_links8.dst_net_bridge.power_state.pwrStateResidencyTicks::UNDEFINED        12101                       # Cumulative time (in ticks) in various power states
system.ruby.network.int_links8.network_link.power_state.pwrStateResidencyTicks::UNDEFINED        12101                       # Cumulative time (in ticks) in various power states
system.ruby.network.int_links8.src_cred_bridge.power_state.pwrStateResidencyTicks::UNDEFINED        12101                       # Cumulative time (in ticks) in various power states
system.ruby.network.int_links8.src_net_bridge.power_state.pwrStateResidencyTicks::UNDEFINED        12101                       # Cumulative time (in ticks) in various power states
system.ruby.network.int_links9.credit_link.power_state.pwrStateResidencyTicks::UNDEFINED        12101                       # Cumulative time (in ticks) in various power states
system.ruby.network.int_links9.dst_cred_bridge.power_state.pwrStateResidencyTicks::UNDEFINED        12101                       # Cumulative time (in ticks) in various power states
system.ruby.network.int_links9.dst_net_bridge.power_state.pwrStateResidencyTicks::UNDEFINED        12101                       # Cumulative time (in ticks) in various power states
system.ruby.network.int_links9.network_link.power_state.pwrStateResidencyTicks::UNDEFINED        12101                       # Cumulative time (in ticks) in various power states
system.ruby.network.int_links9.src_cred_bridge.power_state.pwrStateResidencyTicks::UNDEFINED        12101                       # Cumulative time (in ticks) in various power states
system.ruby.network.int_links9.src_net_bridge.power_state.pwrStateResidencyTicks::UNDEFINED        12101                       # Cumulative time (in ticks) in various power states
system.ruby.network.netifs0.power_state.pwrStateResidencyTicks::UNDEFINED        12101                       # Cumulative time (in ticks) in various power states
system.ruby.network.netifs1.power_state.pwrStateResidencyTicks::UNDEFINED        12101                       # Cumulative time (in ticks) in various power states
system.ruby.network.netifs10.power_state.pwrStateResidencyTicks::UNDEFINED        12101                       # Cumulative time (in ticks) in various power states
system.ruby.network.netifs11.power_state.pwrStateResidencyTicks::UNDEFINED        12101                       # Cumulative time (in ticks) in various power states
system.ruby.network.netifs12.power_state.pwrStateResidencyTicks::UNDEFINED        12101                       # Cumulative time (in ticks) in various power states
system.ruby.network.netifs13.power_state.pwrStateResidencyTicks::UNDEFINED        12101                       # Cumulative time (in ticks) in various power states
system.ruby.network.netifs14.power_state.pwrStateResidencyTicks::UNDEFINED        12101                       # Cumulative time (in ticks) in various power states
system.ruby.network.netifs15.power_state.pwrStateResidencyTicks::UNDEFINED        12101                       # Cumulative time (in ticks) in various power states
system.ruby.network.netifs16.power_state.pwrStateResidencyTicks::UNDEFINED        12101                       # Cumulative time (in ticks) in various power states
system.ruby.network.netifs17.power_state.pwrStateResidencyTicks::UNDEFINED        12101                       # Cumulative time (in ticks) in various power states
system.ruby.network.netifs18.power_state.pwrStateResidencyTicks::UNDEFINED        12101                       # Cumulative time (in ticks) in various power states
system.ruby.network.netifs19.power_state.pwrStateResidencyTicks::UNDEFINED        12101                       # Cumulative time (in ticks) in various power states
system.ruby.network.netifs2.power_state.pwrStateResidencyTicks::UNDEFINED        12101                       # Cumulative time (in ticks) in various power states
system.ruby.network.netifs20.power_state.pwrStateResidencyTicks::UNDEFINED        12101                       # Cumulative time (in ticks) in various power states
system.ruby.network.netifs21.power_state.pwrStateResidencyTicks::UNDEFINED        12101                       # Cumulative time (in ticks) in various power states
system.ruby.network.netifs22.power_state.pwrStateResidencyTicks::UNDEFINED        12101                       # Cumulative time (in ticks) in various power states
system.ruby.network.netifs23.power_state.pwrStateResidencyTicks::UNDEFINED        12101                       # Cumulative time (in ticks) in various power states
system.ruby.network.netifs24.power_state.pwrStateResidencyTicks::UNDEFINED        12101                       # Cumulative time (in ticks) in various power states
system.ruby.network.netifs25.power_state.pwrStateResidencyTicks::UNDEFINED        12101                       # Cumulative time (in ticks) in various power states
system.ruby.network.netifs26.power_state.pwrStateResidencyTicks::UNDEFINED        12101                       # Cumulative time (in ticks) in various power states
system.ruby.network.netifs27.power_state.pwrStateResidencyTicks::UNDEFINED        12101                       # Cumulative time (in ticks) in various power states
system.ruby.network.netifs28.power_state.pwrStateResidencyTicks::UNDEFINED        12101                       # Cumulative time (in ticks) in various power states
system.ruby.network.netifs29.power_state.pwrStateResidencyTicks::UNDEFINED        12101                       # Cumulative time (in ticks) in various power states
system.ruby.network.netifs3.power_state.pwrStateResidencyTicks::UNDEFINED        12101                       # Cumulative time (in ticks) in various power states
system.ruby.network.netifs30.power_state.pwrStateResidencyTicks::UNDEFINED        12101                       # Cumulative time (in ticks) in various power states
system.ruby.network.netifs31.power_state.pwrStateResidencyTicks::UNDEFINED        12101                       # Cumulative time (in ticks) in various power states
system.ruby.network.netifs4.power_state.pwrStateResidencyTicks::UNDEFINED        12101                       # Cumulative time (in ticks) in various power states
system.ruby.network.netifs5.power_state.pwrStateResidencyTicks::UNDEFINED        12101                       # Cumulative time (in ticks) in various power states
system.ruby.network.netifs6.power_state.pwrStateResidencyTicks::UNDEFINED        12101                       # Cumulative time (in ticks) in various power states
system.ruby.network.netifs7.power_state.pwrStateResidencyTicks::UNDEFINED        12101                       # Cumulative time (in ticks) in various power states
system.ruby.network.netifs8.power_state.pwrStateResidencyTicks::UNDEFINED        12101                       # Cumulative time (in ticks) in various power states
system.ruby.network.netifs9.power_state.pwrStateResidencyTicks::UNDEFINED        12101                       # Cumulative time (in ticks) in various power states
system.ruby.network.power_state.pwrStateResidencyTicks::UNDEFINED        12101                       # Cumulative time (in ticks) in various power states
system.ruby.network.routers0.power_state.pwrStateResidencyTicks::UNDEFINED        12101                       # Cumulative time (in ticks) in various power states
system.ruby.network.routers1.power_state.pwrStateResidencyTicks::UNDEFINED        12101                       # Cumulative time (in ticks) in various power states
system.ruby.network.routers10.power_state.pwrStateResidencyTicks::UNDEFINED        12101                       # Cumulative time (in ticks) in various power states
system.ruby.network.routers11.power_state.pwrStateResidencyTicks::UNDEFINED        12101                       # Cumulative time (in ticks) in various power states
system.ruby.network.routers12.power_state.pwrStateResidencyTicks::UNDEFINED        12101                       # Cumulative time (in ticks) in various power states
system.ruby.network.routers13.power_state.pwrStateResidencyTicks::UNDEFINED        12101                       # Cumulative time (in ticks) in various power states
system.ruby.network.routers14.power_state.pwrStateResidencyTicks::UNDEFINED        12101                       # Cumulative time (in ticks) in various power states
system.ruby.network.routers15.power_state.pwrStateResidencyTicks::UNDEFINED        12101                       # Cumulative time (in ticks) in various power states
system.ruby.network.routers2.power_state.pwrStateResidencyTicks::UNDEFINED        12101                       # Cumulative time (in ticks) in various power states
system.ruby.network.routers3.power_state.pwrStateResidencyTicks::UNDEFINED        12101                       # Cumulative time (in ticks) in various power states
system.ruby.network.routers4.power_state.pwrStateResidencyTicks::UNDEFINED        12101                       # Cumulative time (in ticks) in various power states
system.ruby.network.routers5.power_state.pwrStateResidencyTicks::UNDEFINED        12101                       # Cumulative time (in ticks) in various power states
system.ruby.network.routers6.power_state.pwrStateResidencyTicks::UNDEFINED        12101                       # Cumulative time (in ticks) in various power states
system.ruby.network.routers7.power_state.pwrStateResidencyTicks::UNDEFINED        12101                       # Cumulative time (in ticks) in various power states
system.ruby.network.routers8.power_state.pwrStateResidencyTicks::UNDEFINED        12101                       # Cumulative time (in ticks) in various power states
system.ruby.network.routers9.power_state.pwrStateResidencyTicks::UNDEFINED        12101                       # Cumulative time (in ticks) in various power states
system.ruby.power_state.pwrStateResidencyTicks::UNDEFINED        12101                       # Cumulative time (in ticks) in various power states
system.sys_port_proxy.power_state.pwrStateResidencyTicks::UNDEFINED        12101                       # Cumulative time (in ticks) in various power states
system.voltage_domain.voltage                       1                       # Voltage in Volts

---------- End Simulation Statistics   ----------
